* SPICE NETLIST
***************************************

.SUBCKT bitslice mem_mux_sel<0> lw lb lh lbu lhu mem_mux_sel<1> mem_mux_sel<2> rd_mux_sel<0> cmp_out imm alu_out shift_out<5> rd_mux_sel<1> rd_mux_sel<2> rd_sel<31> rs1_sel<31> rs2_sel<31> rd_sel<30> rs1_sel<30>
+ rs2_sel<30> rd_sel<29> rs1_sel<29> rs2_sel<29> rd_sel<28> rs1_sel<28> rs2_sel<28> rd_sel<27> rs1_sel<27> rs2_sel<27> rd_sel<26> rs1_sel<26> rs2_sel<26> rd_sel<25> rs1_sel<25> rs2_sel<25> rd_sel<24> rs1_sel<24> rs2_sel<24> rd_sel<23>
+ rs1_sel<23> rs2_sel<23> rd_sel<22> rs1_sel<22> rs2_sel<22> rd_sel<21> rs1_sel<21> rs2_sel<21> rd_sel<20> rs1_sel<20> rs2_sel<20> rd_sel<19> rs1_sel<19> rs2_sel<19> rd_sel<18> rs1_sel<18> rs2_sel<18> rd_sel<17> rs1_sel<17> rs2_sel<17>
+ rd_sel<16> rs1_sel<16> rs2_sel<16> rd_sel<15> rs1_sel<15> rs2_sel<15> rd_sel<14> rs1_sel<14> rs2_sel<14> rd_sel<13> rs1_sel<13> rs2_sel<13> rd_sel<12> rs1_sel<12> rs2_sel<12> rd_sel<11> rs1_sel<11> rs2_sel<11> rd_sel<10> rs1_sel<10>
+ rs2_sel<10> rd_sel<9> rs1_sel<9> rs2_sel<9> rd_sel<8> rs1_sel<8> rs2_sel<8> rd_sel<7> rs1_sel<7> rs2_sel<7> rd_sel<6> rs1_sel<6> rs2_sel<6> rd_sel<5> rs1_sel<5> rs2_sel<5> rd_sel<4> rs1_sel<4> rs2_sel<4> rd_sel<3>
+ rs1_sel<3> rs2_sel<3> rd_sel<2> rs1_sel<2> rs2_sel<2> rd_sel<1> rs1_sel<1> rs2_sel<1> rs2_sel<0> rs1_sel<0> clk cmp_src_a rs2_rdata alu_mux_1_sel alu_inv_rs2 alu_mux_2_sel alu_mux_2_out alu_cin alu_cout alu_op<0>
+ alu_op<1> shift_dir shift_in_from_right<0> shift_in_from_left<0> shift_in_from_right<1> shift_in_from_left<1> shift_in_from_right<2> shift_in_from_left<2> shift_in_from_right<3> shift_in_from_left<3> shift_in_from_right<4> shift_in_from_left<4> shift_out<0> shift_amount<0> shift_out<1> shift_amount<1> shift_out<2> shift_amount<2> shift_out<3> shift_amount<3>
+ shift_out<4> shift_amount<4> cmp_mux_sel cmp_src_b cmp_eq_in cmp_eq_out cmp_lt_in cmp_lt_out pc_cin pc pc_adder_4 pc_cout pc_mux_sel rst pc_reset_value vss! vdd!
** N=462 EP=157 IP=0 FDC=900
M0 2 mem_mux_sel<0> vss! vss! NMOS_VTL L=5e-08 W=9e-08 AD=9e-15 AS=9e-15 PD=3.8e-07 PS=3.8e-07 $X=310 $Y=600 $D=1
M1 4 2 lw vss! NMOS_VTL L=5e-08 W=9e-08 AD=1.89e-14 AS=1.2375e-14 PD=6e-07 PS=4.55e-07 $X=1045 $Y=600 $D=1
M2 vss! mem_mux_sel<0> 4 vss! NMOS_VTL L=5e-08 W=9e-08 AD=1.2375e-14 AS=1.89e-14 PD=4.55e-07 PS=6e-07 $X=1565 $Y=600 $D=1
M3 6 2 lb vss! NMOS_VTL L=5e-08 W=9e-08 AD=1.89e-14 AS=1.2375e-14 PD=6e-07 PS=4.55e-07 $X=2375 $Y=600 $D=1
M4 lh mem_mux_sel<0> 6 vss! NMOS_VTL L=5e-08 W=9e-08 AD=1.2375e-14 AS=1.89e-14 PD=4.55e-07 PS=6e-07 $X=2895 $Y=600 $D=1
M5 9 2 lbu vss! NMOS_VTL L=5e-08 W=9e-08 AD=1.89e-14 AS=1.2375e-14 PD=6e-07 PS=4.55e-07 $X=3705 $Y=600 $D=1
M6 lhu mem_mux_sel<0> 9 vss! NMOS_VTL L=5e-08 W=9e-08 AD=1.2375e-14 AS=1.89e-14 PD=4.55e-07 PS=6e-07 $X=4225 $Y=600 $D=1
M7 13 11 9 vss! NMOS_VTL L=5e-08 W=9e-08 AD=1.2375e-14 AS=1.2375e-14 PD=4.55e-07 PS=4.55e-07 $X=5035 $Y=600 $D=1
M8 11 mem_mux_sel<1> vss! vss! NMOS_VTL L=5e-08 W=9e-08 AD=9e-15 AS=9e-15 PD=3.8e-07 PS=3.8e-07 $X=5770 $Y=600 $D=1
M9 14 11 6 vss! NMOS_VTL L=5e-08 W=9e-08 AD=1.89e-14 AS=1.2375e-14 PD=6e-07 PS=4.55e-07 $X=6505 $Y=600 $D=1
M10 4 mem_mux_sel<1> 14 vss! NMOS_VTL L=5e-08 W=9e-08 AD=1.2375e-14 AS=1.89e-14 PD=4.55e-07 PS=6e-07 $X=7025 $Y=600 $D=1
M11 16 mem_mux_sel<2> vss! vss! NMOS_VTL L=5e-08 W=9e-08 AD=9e-15 AS=9e-15 PD=3.8e-07 PS=3.8e-07 $X=7760 $Y=600 $D=1
M12 17 16 14 vss! NMOS_VTL L=5e-08 W=9e-08 AD=1.89e-14 AS=1.2375e-14 PD=6e-07 PS=4.55e-07 $X=8495 $Y=600 $D=1
M13 13 mem_mux_sel<2> 17 vss! NMOS_VTL L=5e-08 W=9e-08 AD=1.2375e-14 AS=1.89e-14 PD=4.55e-07 PS=6e-07 $X=9015 $Y=600 $D=1
M14 19 rd_mux_sel<0> vss! vss! NMOS_VTL L=5e-08 W=9e-08 AD=9e-15 AS=9e-15 PD=3.8e-07 PS=3.8e-07 $X=9750 $Y=600 $D=1
M15 21 19 cmp_out vss! NMOS_VTL L=5e-08 W=9e-08 AD=1.89e-14 AS=1.2375e-14 PD=6e-07 PS=4.55e-07 $X=10485 $Y=600 $D=1
M16 imm rd_mux_sel<0> 21 vss! NMOS_VTL L=5e-08 W=9e-08 AD=1.2375e-14 AS=1.89e-14 PD=4.55e-07 PS=6e-07 $X=11005 $Y=600 $D=1
M17 24 19 alu_out vss! NMOS_VTL L=5e-08 W=9e-08 AD=1.89e-14 AS=1.2375e-14 PD=6e-07 PS=4.55e-07 $X=11815 $Y=600 $D=1
M18 shift_out<5> rd_mux_sel<0> 24 vss! NMOS_VTL L=5e-08 W=9e-08 AD=1.2375e-14 AS=1.89e-14 PD=4.55e-07 PS=6e-07 $X=12335 $Y=600 $D=1
M19 27 19 26 vss! NMOS_VTL L=5e-08 W=9e-08 AD=1.89e-14 AS=1.2375e-14 PD=6e-07 PS=4.55e-07 $X=13145 $Y=600 $D=1
M20 17 rd_mux_sel<0> 27 vss! NMOS_VTL L=5e-08 W=9e-08 AD=1.2375e-14 AS=1.89e-14 PD=4.55e-07 PS=6e-07 $X=13665 $Y=600 $D=1
M21 30 28 27 vss! NMOS_VTL L=5e-08 W=9e-08 AD=1.2375e-14 AS=1.2375e-14 PD=4.55e-07 PS=4.55e-07 $X=14475 $Y=600 $D=1
M22 28 rd_mux_sel<1> vss! vss! NMOS_VTL L=5e-08 W=9e-08 AD=9e-15 AS=9e-15 PD=3.8e-07 PS=3.8e-07 $X=15210 $Y=600 $D=1
M23 31 28 24 vss! NMOS_VTL L=5e-08 W=9e-08 AD=1.89e-14 AS=1.2375e-14 PD=6e-07 PS=4.55e-07 $X=15945 $Y=600 $D=1
M24 21 rd_mux_sel<1> 31 vss! NMOS_VTL L=5e-08 W=9e-08 AD=1.2375e-14 AS=1.89e-14 PD=4.55e-07 PS=6e-07 $X=16465 $Y=600 $D=1
M25 33 rd_mux_sel<2> vss! vss! NMOS_VTL L=5e-08 W=9e-08 AD=9e-15 AS=9e-15 PD=3.8e-07 PS=3.8e-07 $X=17200 $Y=600 $D=1
M26 34 33 31 vss! NMOS_VTL L=5e-08 W=9e-08 AD=1.89e-14 AS=1.2375e-14 PD=6e-07 PS=4.55e-07 $X=17935 $Y=600 $D=1
M27 30 rd_mux_sel<2> 34 vss! NMOS_VTL L=5e-08 W=9e-08 AD=1.2375e-14 AS=1.89e-14 PD=4.55e-07 PS=6e-07 $X=18455 $Y=600 $D=1
M28 vss! rd_sel<31> 35 vss! NMOS_VTL L=5e-08 W=9e-08 AD=1.26e-14 AS=9e-15 PD=4.6e-07 PS=3.8e-07 $X=19190 $Y=600 $D=1
M29 38 rs1_sel<31> vss! vss! NMOS_VTL L=5e-08 W=9e-08 AD=9e-15 AS=1.26e-14 PD=3.8e-07 PS=4.6e-07 $X=19570 $Y=600 $D=1
M30 39 rd_sel<31> 34 vss! NMOS_VTL L=5e-08 W=9e-08 AD=1.2375e-14 AS=1.2375e-14 PD=4.55e-07 PS=4.55e-07 $X=20305 $Y=600 $D=1
M31 vss! 39 409 vss! NMOS_VTL L=5e-08 W=9e-08 AD=1.26e-14 AS=9e-15 PD=4.6e-07 PS=3.8e-07 $X=21040 $Y=600 $D=1
M32 40 409 vss! vss! NMOS_VTL L=5e-08 W=9e-08 AD=1.5525e-14 AS=1.26e-14 PD=5.25e-07 PS=4.6e-07 $X=21420 $Y=600 $D=1
M33 39 35 40 vss! NMOS_VTL L=5e-08 W=9e-08 AD=1.2375e-14 AS=1.5525e-14 PD=4.55e-07 PS=5.25e-07 $X=21865 $Y=600 $D=1
M34 40 rs1_sel<31> 41 vss! NMOS_VTL L=5e-08 W=9e-08 AD=1.89e-14 AS=1.2375e-14 PD=6e-07 PS=4.55e-07 $X=22675 $Y=600 $D=1
M35 44 rs2_sel<31> 40 vss! NMOS_VTL L=5e-08 W=9e-08 AD=1.2375e-14 AS=1.89e-14 PD=4.55e-07 PS=6e-07 $X=23195 $Y=600 $D=1
M36 43 rs2_sel<31> vss! vss! NMOS_VTL L=5e-08 W=9e-08 AD=9e-15 AS=9e-15 PD=3.8e-07 PS=3.8e-07 $X=23930 $Y=600 $D=1
M37 vss! rd_sel<30> 45 vss! NMOS_VTL L=5e-08 W=9e-08 AD=1.26e-14 AS=9e-15 PD=4.6e-07 PS=3.8e-07 $X=24590 $Y=600 $D=1
M38 48 rs1_sel<30> vss! vss! NMOS_VTL L=5e-08 W=9e-08 AD=9e-15 AS=1.26e-14 PD=3.8e-07 PS=4.6e-07 $X=24970 $Y=600 $D=1
M39 49 rd_sel<30> 34 vss! NMOS_VTL L=5e-08 W=9e-08 AD=1.2375e-14 AS=1.2375e-14 PD=4.55e-07 PS=4.55e-07 $X=25705 $Y=600 $D=1
M40 vss! 49 410 vss! NMOS_VTL L=5e-08 W=9e-08 AD=1.26e-14 AS=9e-15 PD=4.6e-07 PS=3.8e-07 $X=26440 $Y=600 $D=1
M41 50 410 vss! vss! NMOS_VTL L=5e-08 W=9e-08 AD=1.5525e-14 AS=1.26e-14 PD=5.25e-07 PS=4.6e-07 $X=26820 $Y=600 $D=1
M42 49 45 50 vss! NMOS_VTL L=5e-08 W=9e-08 AD=1.2375e-14 AS=1.5525e-14 PD=4.55e-07 PS=5.25e-07 $X=27265 $Y=600 $D=1
M43 50 rs1_sel<30> 41 vss! NMOS_VTL L=5e-08 W=9e-08 AD=1.89e-14 AS=1.2375e-14 PD=6e-07 PS=4.55e-07 $X=28075 $Y=600 $D=1
M44 44 rs2_sel<30> 50 vss! NMOS_VTL L=5e-08 W=9e-08 AD=1.2375e-14 AS=1.89e-14 PD=4.55e-07 PS=6e-07 $X=28595 $Y=600 $D=1
M45 52 rs2_sel<30> vss! vss! NMOS_VTL L=5e-08 W=9e-08 AD=9e-15 AS=9e-15 PD=3.8e-07 PS=3.8e-07 $X=29330 $Y=600 $D=1
M46 vss! rd_sel<29> 53 vss! NMOS_VTL L=5e-08 W=9e-08 AD=1.26e-14 AS=9e-15 PD=4.6e-07 PS=3.8e-07 $X=29990 $Y=600 $D=1
M47 56 rs1_sel<29> vss! vss! NMOS_VTL L=5e-08 W=9e-08 AD=9e-15 AS=1.26e-14 PD=3.8e-07 PS=4.6e-07 $X=30370 $Y=600 $D=1
M48 57 rd_sel<29> 34 vss! NMOS_VTL L=5e-08 W=9e-08 AD=1.2375e-14 AS=1.2375e-14 PD=4.55e-07 PS=4.55e-07 $X=31105 $Y=600 $D=1
M49 vss! 57 411 vss! NMOS_VTL L=5e-08 W=9e-08 AD=1.26e-14 AS=9e-15 PD=4.6e-07 PS=3.8e-07 $X=31840 $Y=600 $D=1
M50 58 411 vss! vss! NMOS_VTL L=5e-08 W=9e-08 AD=1.5525e-14 AS=1.26e-14 PD=5.25e-07 PS=4.6e-07 $X=32220 $Y=600 $D=1
M51 57 53 58 vss! NMOS_VTL L=5e-08 W=9e-08 AD=1.2375e-14 AS=1.5525e-14 PD=4.55e-07 PS=5.25e-07 $X=32665 $Y=600 $D=1
M52 58 rs1_sel<29> 41 vss! NMOS_VTL L=5e-08 W=9e-08 AD=1.89e-14 AS=1.2375e-14 PD=6e-07 PS=4.55e-07 $X=33475 $Y=600 $D=1
M53 44 rs2_sel<29> 58 vss! NMOS_VTL L=5e-08 W=9e-08 AD=1.2375e-14 AS=1.89e-14 PD=4.55e-07 PS=6e-07 $X=33995 $Y=600 $D=1
M54 60 rs2_sel<29> vss! vss! NMOS_VTL L=5e-08 W=9e-08 AD=9e-15 AS=9e-15 PD=3.8e-07 PS=3.8e-07 $X=34730 $Y=600 $D=1
M55 vss! rd_sel<28> 61 vss! NMOS_VTL L=5e-08 W=9e-08 AD=1.26e-14 AS=9e-15 PD=4.6e-07 PS=3.8e-07 $X=35390 $Y=600 $D=1
M56 64 rs1_sel<28> vss! vss! NMOS_VTL L=5e-08 W=9e-08 AD=9e-15 AS=1.26e-14 PD=3.8e-07 PS=4.6e-07 $X=35770 $Y=600 $D=1
M57 65 rd_sel<28> 34 vss! NMOS_VTL L=5e-08 W=9e-08 AD=1.2375e-14 AS=1.2375e-14 PD=4.55e-07 PS=4.55e-07 $X=36505 $Y=600 $D=1
M58 vss! 65 412 vss! NMOS_VTL L=5e-08 W=9e-08 AD=1.26e-14 AS=9e-15 PD=4.6e-07 PS=3.8e-07 $X=37240 $Y=600 $D=1
M59 66 412 vss! vss! NMOS_VTL L=5e-08 W=9e-08 AD=1.5525e-14 AS=1.26e-14 PD=5.25e-07 PS=4.6e-07 $X=37620 $Y=600 $D=1
M60 65 61 66 vss! NMOS_VTL L=5e-08 W=9e-08 AD=1.2375e-14 AS=1.5525e-14 PD=4.55e-07 PS=5.25e-07 $X=38065 $Y=600 $D=1
M61 66 rs1_sel<28> 41 vss! NMOS_VTL L=5e-08 W=9e-08 AD=1.89e-14 AS=1.2375e-14 PD=6e-07 PS=4.55e-07 $X=38875 $Y=600 $D=1
M62 44 rs2_sel<28> 66 vss! NMOS_VTL L=5e-08 W=9e-08 AD=1.2375e-14 AS=1.89e-14 PD=4.55e-07 PS=6e-07 $X=39395 $Y=600 $D=1
M63 68 rs2_sel<28> vss! vss! NMOS_VTL L=5e-08 W=9e-08 AD=9e-15 AS=9e-15 PD=3.8e-07 PS=3.8e-07 $X=40130 $Y=600 $D=1
M64 vss! rd_sel<27> 69 vss! NMOS_VTL L=5e-08 W=9e-08 AD=1.26e-14 AS=9e-15 PD=4.6e-07 PS=3.8e-07 $X=40790 $Y=600 $D=1
M65 72 rs1_sel<27> vss! vss! NMOS_VTL L=5e-08 W=9e-08 AD=9e-15 AS=1.26e-14 PD=3.8e-07 PS=4.6e-07 $X=41170 $Y=600 $D=1
M66 73 rd_sel<27> 34 vss! NMOS_VTL L=5e-08 W=9e-08 AD=1.2375e-14 AS=1.2375e-14 PD=4.55e-07 PS=4.55e-07 $X=41905 $Y=600 $D=1
M67 vss! 73 413 vss! NMOS_VTL L=5e-08 W=9e-08 AD=1.26e-14 AS=9e-15 PD=4.6e-07 PS=3.8e-07 $X=42640 $Y=600 $D=1
M68 74 413 vss! vss! NMOS_VTL L=5e-08 W=9e-08 AD=1.5525e-14 AS=1.26e-14 PD=5.25e-07 PS=4.6e-07 $X=43020 $Y=600 $D=1
M69 73 69 74 vss! NMOS_VTL L=5e-08 W=9e-08 AD=1.2375e-14 AS=1.5525e-14 PD=4.55e-07 PS=5.25e-07 $X=43465 $Y=600 $D=1
M70 74 rs1_sel<27> 41 vss! NMOS_VTL L=5e-08 W=9e-08 AD=1.89e-14 AS=1.2375e-14 PD=6e-07 PS=4.55e-07 $X=44275 $Y=600 $D=1
M71 44 rs2_sel<27> 74 vss! NMOS_VTL L=5e-08 W=9e-08 AD=1.2375e-14 AS=1.89e-14 PD=4.55e-07 PS=6e-07 $X=44795 $Y=600 $D=1
M72 76 rs2_sel<27> vss! vss! NMOS_VTL L=5e-08 W=9e-08 AD=9e-15 AS=9e-15 PD=3.8e-07 PS=3.8e-07 $X=45530 $Y=600 $D=1
M73 vss! rd_sel<26> 77 vss! NMOS_VTL L=5e-08 W=9e-08 AD=1.26e-14 AS=9e-15 PD=4.6e-07 PS=3.8e-07 $X=46190 $Y=600 $D=1
M74 80 rs1_sel<26> vss! vss! NMOS_VTL L=5e-08 W=9e-08 AD=9e-15 AS=1.26e-14 PD=3.8e-07 PS=4.6e-07 $X=46570 $Y=600 $D=1
M75 81 rd_sel<26> 34 vss! NMOS_VTL L=5e-08 W=9e-08 AD=1.2375e-14 AS=1.2375e-14 PD=4.55e-07 PS=4.55e-07 $X=47305 $Y=600 $D=1
M76 vss! 81 414 vss! NMOS_VTL L=5e-08 W=9e-08 AD=1.26e-14 AS=9e-15 PD=4.6e-07 PS=3.8e-07 $X=48040 $Y=600 $D=1
M77 82 414 vss! vss! NMOS_VTL L=5e-08 W=9e-08 AD=1.5525e-14 AS=1.26e-14 PD=5.25e-07 PS=4.6e-07 $X=48420 $Y=600 $D=1
M78 81 77 82 vss! NMOS_VTL L=5e-08 W=9e-08 AD=1.2375e-14 AS=1.5525e-14 PD=4.55e-07 PS=5.25e-07 $X=48865 $Y=600 $D=1
M79 82 rs1_sel<26> 41 vss! NMOS_VTL L=5e-08 W=9e-08 AD=1.89e-14 AS=1.2375e-14 PD=6e-07 PS=4.55e-07 $X=49675 $Y=600 $D=1
M80 44 rs2_sel<26> 82 vss! NMOS_VTL L=5e-08 W=9e-08 AD=1.2375e-14 AS=1.89e-14 PD=4.55e-07 PS=6e-07 $X=50195 $Y=600 $D=1
M81 84 rs2_sel<26> vss! vss! NMOS_VTL L=5e-08 W=9e-08 AD=9e-15 AS=9e-15 PD=3.8e-07 PS=3.8e-07 $X=50930 $Y=600 $D=1
M82 vss! rd_sel<25> 85 vss! NMOS_VTL L=5e-08 W=9e-08 AD=1.26e-14 AS=9e-15 PD=4.6e-07 PS=3.8e-07 $X=51590 $Y=600 $D=1
M83 88 rs1_sel<25> vss! vss! NMOS_VTL L=5e-08 W=9e-08 AD=9e-15 AS=1.26e-14 PD=3.8e-07 PS=4.6e-07 $X=51970 $Y=600 $D=1
M84 89 rd_sel<25> 34 vss! NMOS_VTL L=5e-08 W=9e-08 AD=1.2375e-14 AS=1.2375e-14 PD=4.55e-07 PS=4.55e-07 $X=52705 $Y=600 $D=1
M85 vss! 89 415 vss! NMOS_VTL L=5e-08 W=9e-08 AD=1.26e-14 AS=9e-15 PD=4.6e-07 PS=3.8e-07 $X=53440 $Y=600 $D=1
M86 90 415 vss! vss! NMOS_VTL L=5e-08 W=9e-08 AD=1.5525e-14 AS=1.26e-14 PD=5.25e-07 PS=4.6e-07 $X=53820 $Y=600 $D=1
M87 89 85 90 vss! NMOS_VTL L=5e-08 W=9e-08 AD=1.2375e-14 AS=1.5525e-14 PD=4.55e-07 PS=5.25e-07 $X=54265 $Y=600 $D=1
M88 90 rs1_sel<25> 41 vss! NMOS_VTL L=5e-08 W=9e-08 AD=1.89e-14 AS=1.2375e-14 PD=6e-07 PS=4.55e-07 $X=55075 $Y=600 $D=1
M89 44 rs2_sel<25> 90 vss! NMOS_VTL L=5e-08 W=9e-08 AD=1.2375e-14 AS=1.89e-14 PD=4.55e-07 PS=6e-07 $X=55595 $Y=600 $D=1
M90 92 rs2_sel<25> vss! vss! NMOS_VTL L=5e-08 W=9e-08 AD=9e-15 AS=9e-15 PD=3.8e-07 PS=3.8e-07 $X=56330 $Y=600 $D=1
M91 vss! rd_sel<24> 93 vss! NMOS_VTL L=5e-08 W=9e-08 AD=1.26e-14 AS=9e-15 PD=4.6e-07 PS=3.8e-07 $X=56990 $Y=600 $D=1
M92 96 rs1_sel<24> vss! vss! NMOS_VTL L=5e-08 W=9e-08 AD=9e-15 AS=1.26e-14 PD=3.8e-07 PS=4.6e-07 $X=57370 $Y=600 $D=1
M93 97 rd_sel<24> 34 vss! NMOS_VTL L=5e-08 W=9e-08 AD=1.2375e-14 AS=1.2375e-14 PD=4.55e-07 PS=4.55e-07 $X=58105 $Y=600 $D=1
M94 vss! 97 416 vss! NMOS_VTL L=5e-08 W=9e-08 AD=1.26e-14 AS=9e-15 PD=4.6e-07 PS=3.8e-07 $X=58840 $Y=600 $D=1
M95 98 416 vss! vss! NMOS_VTL L=5e-08 W=9e-08 AD=1.5525e-14 AS=1.26e-14 PD=5.25e-07 PS=4.6e-07 $X=59220 $Y=600 $D=1
M96 97 93 98 vss! NMOS_VTL L=5e-08 W=9e-08 AD=1.2375e-14 AS=1.5525e-14 PD=4.55e-07 PS=5.25e-07 $X=59665 $Y=600 $D=1
M97 98 rs1_sel<24> 41 vss! NMOS_VTL L=5e-08 W=9e-08 AD=1.89e-14 AS=1.2375e-14 PD=6e-07 PS=4.55e-07 $X=60475 $Y=600 $D=1
M98 44 rs2_sel<24> 98 vss! NMOS_VTL L=5e-08 W=9e-08 AD=1.2375e-14 AS=1.89e-14 PD=4.55e-07 PS=6e-07 $X=60995 $Y=600 $D=1
M99 100 rs2_sel<24> vss! vss! NMOS_VTL L=5e-08 W=9e-08 AD=9e-15 AS=9e-15 PD=3.8e-07 PS=3.8e-07 $X=61730 $Y=600 $D=1
M100 vss! rd_sel<23> 101 vss! NMOS_VTL L=5e-08 W=9e-08 AD=1.26e-14 AS=9e-15 PD=4.6e-07 PS=3.8e-07 $X=62390 $Y=600 $D=1
M101 104 rs1_sel<23> vss! vss! NMOS_VTL L=5e-08 W=9e-08 AD=9e-15 AS=1.26e-14 PD=3.8e-07 PS=4.6e-07 $X=62770 $Y=600 $D=1
M102 105 rd_sel<23> 34 vss! NMOS_VTL L=5e-08 W=9e-08 AD=1.2375e-14 AS=1.2375e-14 PD=4.55e-07 PS=4.55e-07 $X=63505 $Y=600 $D=1
M103 vss! 105 417 vss! NMOS_VTL L=5e-08 W=9e-08 AD=1.26e-14 AS=9e-15 PD=4.6e-07 PS=3.8e-07 $X=64240 $Y=600 $D=1
M104 106 417 vss! vss! NMOS_VTL L=5e-08 W=9e-08 AD=1.5525e-14 AS=1.26e-14 PD=5.25e-07 PS=4.6e-07 $X=64620 $Y=600 $D=1
M105 105 101 106 vss! NMOS_VTL L=5e-08 W=9e-08 AD=1.2375e-14 AS=1.5525e-14 PD=4.55e-07 PS=5.25e-07 $X=65065 $Y=600 $D=1
M106 106 rs1_sel<23> 41 vss! NMOS_VTL L=5e-08 W=9e-08 AD=1.89e-14 AS=1.2375e-14 PD=6e-07 PS=4.55e-07 $X=65875 $Y=600 $D=1
M107 44 rs2_sel<23> 106 vss! NMOS_VTL L=5e-08 W=9e-08 AD=1.2375e-14 AS=1.89e-14 PD=4.55e-07 PS=6e-07 $X=66395 $Y=600 $D=1
M108 108 rs2_sel<23> vss! vss! NMOS_VTL L=5e-08 W=9e-08 AD=9e-15 AS=9e-15 PD=3.8e-07 PS=3.8e-07 $X=67130 $Y=600 $D=1
M109 vss! rd_sel<22> 109 vss! NMOS_VTL L=5e-08 W=9e-08 AD=1.26e-14 AS=9e-15 PD=4.6e-07 PS=3.8e-07 $X=67790 $Y=600 $D=1
M110 112 rs1_sel<22> vss! vss! NMOS_VTL L=5e-08 W=9e-08 AD=9e-15 AS=1.26e-14 PD=3.8e-07 PS=4.6e-07 $X=68170 $Y=600 $D=1
M111 113 rd_sel<22> 34 vss! NMOS_VTL L=5e-08 W=9e-08 AD=1.2375e-14 AS=1.2375e-14 PD=4.55e-07 PS=4.55e-07 $X=68905 $Y=600 $D=1
M112 vss! 113 418 vss! NMOS_VTL L=5e-08 W=9e-08 AD=1.26e-14 AS=9e-15 PD=4.6e-07 PS=3.8e-07 $X=69640 $Y=600 $D=1
M113 114 418 vss! vss! NMOS_VTL L=5e-08 W=9e-08 AD=1.5525e-14 AS=1.26e-14 PD=5.25e-07 PS=4.6e-07 $X=70020 $Y=600 $D=1
M114 113 109 114 vss! NMOS_VTL L=5e-08 W=9e-08 AD=1.2375e-14 AS=1.5525e-14 PD=4.55e-07 PS=5.25e-07 $X=70465 $Y=600 $D=1
M115 114 rs1_sel<22> 41 vss! NMOS_VTL L=5e-08 W=9e-08 AD=1.89e-14 AS=1.2375e-14 PD=6e-07 PS=4.55e-07 $X=71275 $Y=600 $D=1
M116 44 rs2_sel<22> 114 vss! NMOS_VTL L=5e-08 W=9e-08 AD=1.2375e-14 AS=1.89e-14 PD=4.55e-07 PS=6e-07 $X=71795 $Y=600 $D=1
M117 116 rs2_sel<22> vss! vss! NMOS_VTL L=5e-08 W=9e-08 AD=9e-15 AS=9e-15 PD=3.8e-07 PS=3.8e-07 $X=72530 $Y=600 $D=1
M118 vss! rd_sel<21> 117 vss! NMOS_VTL L=5e-08 W=9e-08 AD=1.26e-14 AS=9e-15 PD=4.6e-07 PS=3.8e-07 $X=73190 $Y=600 $D=1
M119 120 rs1_sel<21> vss! vss! NMOS_VTL L=5e-08 W=9e-08 AD=9e-15 AS=1.26e-14 PD=3.8e-07 PS=4.6e-07 $X=73570 $Y=600 $D=1
M120 121 rd_sel<21> 34 vss! NMOS_VTL L=5e-08 W=9e-08 AD=1.2375e-14 AS=1.2375e-14 PD=4.55e-07 PS=4.55e-07 $X=74305 $Y=600 $D=1
M121 vss! 121 419 vss! NMOS_VTL L=5e-08 W=9e-08 AD=1.26e-14 AS=9e-15 PD=4.6e-07 PS=3.8e-07 $X=75040 $Y=600 $D=1
M122 122 419 vss! vss! NMOS_VTL L=5e-08 W=9e-08 AD=1.5525e-14 AS=1.26e-14 PD=5.25e-07 PS=4.6e-07 $X=75420 $Y=600 $D=1
M123 121 117 122 vss! NMOS_VTL L=5e-08 W=9e-08 AD=1.2375e-14 AS=1.5525e-14 PD=4.55e-07 PS=5.25e-07 $X=75865 $Y=600 $D=1
M124 122 rs1_sel<21> 41 vss! NMOS_VTL L=5e-08 W=9e-08 AD=1.89e-14 AS=1.2375e-14 PD=6e-07 PS=4.55e-07 $X=76675 $Y=600 $D=1
M125 44 rs2_sel<21> 122 vss! NMOS_VTL L=5e-08 W=9e-08 AD=1.2375e-14 AS=1.89e-14 PD=4.55e-07 PS=6e-07 $X=77195 $Y=600 $D=1
M126 124 rs2_sel<21> vss! vss! NMOS_VTL L=5e-08 W=9e-08 AD=9e-15 AS=9e-15 PD=3.8e-07 PS=3.8e-07 $X=77930 $Y=600 $D=1
M127 vss! rd_sel<20> 125 vss! NMOS_VTL L=5e-08 W=9e-08 AD=1.26e-14 AS=9e-15 PD=4.6e-07 PS=3.8e-07 $X=78590 $Y=600 $D=1
M128 128 rs1_sel<20> vss! vss! NMOS_VTL L=5e-08 W=9e-08 AD=9e-15 AS=1.26e-14 PD=3.8e-07 PS=4.6e-07 $X=78970 $Y=600 $D=1
M129 129 rd_sel<20> 34 vss! NMOS_VTL L=5e-08 W=9e-08 AD=1.2375e-14 AS=1.2375e-14 PD=4.55e-07 PS=4.55e-07 $X=79705 $Y=600 $D=1
M130 vss! 129 420 vss! NMOS_VTL L=5e-08 W=9e-08 AD=1.26e-14 AS=9e-15 PD=4.6e-07 PS=3.8e-07 $X=80440 $Y=600 $D=1
M131 130 420 vss! vss! NMOS_VTL L=5e-08 W=9e-08 AD=1.5525e-14 AS=1.26e-14 PD=5.25e-07 PS=4.6e-07 $X=80820 $Y=600 $D=1
M132 129 125 130 vss! NMOS_VTL L=5e-08 W=9e-08 AD=1.2375e-14 AS=1.5525e-14 PD=4.55e-07 PS=5.25e-07 $X=81265 $Y=600 $D=1
M133 130 rs1_sel<20> 41 vss! NMOS_VTL L=5e-08 W=9e-08 AD=1.89e-14 AS=1.2375e-14 PD=6e-07 PS=4.55e-07 $X=82075 $Y=600 $D=1
M134 44 rs2_sel<20> 130 vss! NMOS_VTL L=5e-08 W=9e-08 AD=1.2375e-14 AS=1.89e-14 PD=4.55e-07 PS=6e-07 $X=82595 $Y=600 $D=1
M135 132 rs2_sel<20> vss! vss! NMOS_VTL L=5e-08 W=9e-08 AD=9e-15 AS=9e-15 PD=3.8e-07 PS=3.8e-07 $X=83330 $Y=600 $D=1
M136 vss! rd_sel<19> 133 vss! NMOS_VTL L=5e-08 W=9e-08 AD=1.26e-14 AS=9e-15 PD=4.6e-07 PS=3.8e-07 $X=83990 $Y=600 $D=1
M137 136 rs1_sel<19> vss! vss! NMOS_VTL L=5e-08 W=9e-08 AD=9e-15 AS=1.26e-14 PD=3.8e-07 PS=4.6e-07 $X=84370 $Y=600 $D=1
M138 137 rd_sel<19> 34 vss! NMOS_VTL L=5e-08 W=9e-08 AD=1.2375e-14 AS=1.2375e-14 PD=4.55e-07 PS=4.55e-07 $X=85105 $Y=600 $D=1
M139 vss! 137 421 vss! NMOS_VTL L=5e-08 W=9e-08 AD=1.26e-14 AS=9e-15 PD=4.6e-07 PS=3.8e-07 $X=85840 $Y=600 $D=1
M140 138 421 vss! vss! NMOS_VTL L=5e-08 W=9e-08 AD=1.5525e-14 AS=1.26e-14 PD=5.25e-07 PS=4.6e-07 $X=86220 $Y=600 $D=1
M141 137 133 138 vss! NMOS_VTL L=5e-08 W=9e-08 AD=1.2375e-14 AS=1.5525e-14 PD=4.55e-07 PS=5.25e-07 $X=86665 $Y=600 $D=1
M142 138 rs1_sel<19> 41 vss! NMOS_VTL L=5e-08 W=9e-08 AD=1.89e-14 AS=1.2375e-14 PD=6e-07 PS=4.55e-07 $X=87475 $Y=600 $D=1
M143 44 rs2_sel<19> 138 vss! NMOS_VTL L=5e-08 W=9e-08 AD=1.2375e-14 AS=1.89e-14 PD=4.55e-07 PS=6e-07 $X=87995 $Y=600 $D=1
M144 140 rs2_sel<19> vss! vss! NMOS_VTL L=5e-08 W=9e-08 AD=9e-15 AS=9e-15 PD=3.8e-07 PS=3.8e-07 $X=88730 $Y=600 $D=1
M145 vss! rd_sel<18> 141 vss! NMOS_VTL L=5e-08 W=9e-08 AD=1.26e-14 AS=9e-15 PD=4.6e-07 PS=3.8e-07 $X=89390 $Y=600 $D=1
M146 144 rs1_sel<18> vss! vss! NMOS_VTL L=5e-08 W=9e-08 AD=9e-15 AS=1.26e-14 PD=3.8e-07 PS=4.6e-07 $X=89770 $Y=600 $D=1
M147 145 rd_sel<18> 34 vss! NMOS_VTL L=5e-08 W=9e-08 AD=1.2375e-14 AS=1.2375e-14 PD=4.55e-07 PS=4.55e-07 $X=90505 $Y=600 $D=1
M148 vss! 145 422 vss! NMOS_VTL L=5e-08 W=9e-08 AD=1.26e-14 AS=9e-15 PD=4.6e-07 PS=3.8e-07 $X=91240 $Y=600 $D=1
M149 146 422 vss! vss! NMOS_VTL L=5e-08 W=9e-08 AD=1.5525e-14 AS=1.26e-14 PD=5.25e-07 PS=4.6e-07 $X=91620 $Y=600 $D=1
M150 145 141 146 vss! NMOS_VTL L=5e-08 W=9e-08 AD=1.2375e-14 AS=1.5525e-14 PD=4.55e-07 PS=5.25e-07 $X=92065 $Y=600 $D=1
M151 146 rs1_sel<18> 41 vss! NMOS_VTL L=5e-08 W=9e-08 AD=1.89e-14 AS=1.2375e-14 PD=6e-07 PS=4.55e-07 $X=92875 $Y=600 $D=1
M152 44 rs2_sel<18> 146 vss! NMOS_VTL L=5e-08 W=9e-08 AD=1.2375e-14 AS=1.89e-14 PD=4.55e-07 PS=6e-07 $X=93395 $Y=600 $D=1
M153 148 rs2_sel<18> vss! vss! NMOS_VTL L=5e-08 W=9e-08 AD=9e-15 AS=9e-15 PD=3.8e-07 PS=3.8e-07 $X=94130 $Y=600 $D=1
M154 vss! rd_sel<17> 149 vss! NMOS_VTL L=5e-08 W=9e-08 AD=1.26e-14 AS=9e-15 PD=4.6e-07 PS=3.8e-07 $X=94790 $Y=600 $D=1
M155 152 rs1_sel<17> vss! vss! NMOS_VTL L=5e-08 W=9e-08 AD=9e-15 AS=1.26e-14 PD=3.8e-07 PS=4.6e-07 $X=95170 $Y=600 $D=1
M156 153 rd_sel<17> 34 vss! NMOS_VTL L=5e-08 W=9e-08 AD=1.2375e-14 AS=1.2375e-14 PD=4.55e-07 PS=4.55e-07 $X=95905 $Y=600 $D=1
M157 vss! 153 423 vss! NMOS_VTL L=5e-08 W=9e-08 AD=1.26e-14 AS=9e-15 PD=4.6e-07 PS=3.8e-07 $X=96640 $Y=600 $D=1
M158 154 423 vss! vss! NMOS_VTL L=5e-08 W=9e-08 AD=1.5525e-14 AS=1.26e-14 PD=5.25e-07 PS=4.6e-07 $X=97020 $Y=600 $D=1
M159 153 149 154 vss! NMOS_VTL L=5e-08 W=9e-08 AD=1.2375e-14 AS=1.5525e-14 PD=4.55e-07 PS=5.25e-07 $X=97465 $Y=600 $D=1
M160 154 rs1_sel<17> 41 vss! NMOS_VTL L=5e-08 W=9e-08 AD=1.89e-14 AS=1.2375e-14 PD=6e-07 PS=4.55e-07 $X=98275 $Y=600 $D=1
M161 44 rs2_sel<17> 154 vss! NMOS_VTL L=5e-08 W=9e-08 AD=1.2375e-14 AS=1.89e-14 PD=4.55e-07 PS=6e-07 $X=98795 $Y=600 $D=1
M162 156 rs2_sel<17> vss! vss! NMOS_VTL L=5e-08 W=9e-08 AD=9e-15 AS=9e-15 PD=3.8e-07 PS=3.8e-07 $X=99530 $Y=600 $D=1
M163 vss! rd_sel<16> 157 vss! NMOS_VTL L=5e-08 W=9e-08 AD=1.26e-14 AS=9e-15 PD=4.6e-07 PS=3.8e-07 $X=100190 $Y=600 $D=1
M164 160 rs1_sel<16> vss! vss! NMOS_VTL L=5e-08 W=9e-08 AD=9e-15 AS=1.26e-14 PD=3.8e-07 PS=4.6e-07 $X=100570 $Y=600 $D=1
M165 161 rd_sel<16> 34 vss! NMOS_VTL L=5e-08 W=9e-08 AD=1.2375e-14 AS=1.2375e-14 PD=4.55e-07 PS=4.55e-07 $X=101305 $Y=600 $D=1
M166 vss! 161 424 vss! NMOS_VTL L=5e-08 W=9e-08 AD=1.26e-14 AS=9e-15 PD=4.6e-07 PS=3.8e-07 $X=102040 $Y=600 $D=1
M167 162 424 vss! vss! NMOS_VTL L=5e-08 W=9e-08 AD=1.5525e-14 AS=1.26e-14 PD=5.25e-07 PS=4.6e-07 $X=102420 $Y=600 $D=1
M168 161 157 162 vss! NMOS_VTL L=5e-08 W=9e-08 AD=1.2375e-14 AS=1.5525e-14 PD=4.55e-07 PS=5.25e-07 $X=102865 $Y=600 $D=1
M169 162 rs1_sel<16> 41 vss! NMOS_VTL L=5e-08 W=9e-08 AD=1.89e-14 AS=1.2375e-14 PD=6e-07 PS=4.55e-07 $X=103675 $Y=600 $D=1
M170 44 rs2_sel<16> 162 vss! NMOS_VTL L=5e-08 W=9e-08 AD=1.2375e-14 AS=1.89e-14 PD=4.55e-07 PS=6e-07 $X=104195 $Y=600 $D=1
M171 164 rs2_sel<16> vss! vss! NMOS_VTL L=5e-08 W=9e-08 AD=9e-15 AS=9e-15 PD=3.8e-07 PS=3.8e-07 $X=104930 $Y=600 $D=1
M172 vss! rd_sel<15> 165 vss! NMOS_VTL L=5e-08 W=9e-08 AD=1.26e-14 AS=9e-15 PD=4.6e-07 PS=3.8e-07 $X=105590 $Y=600 $D=1
M173 168 rs1_sel<15> vss! vss! NMOS_VTL L=5e-08 W=9e-08 AD=9e-15 AS=1.26e-14 PD=3.8e-07 PS=4.6e-07 $X=105970 $Y=600 $D=1
M174 169 rd_sel<15> 34 vss! NMOS_VTL L=5e-08 W=9e-08 AD=1.2375e-14 AS=1.2375e-14 PD=4.55e-07 PS=4.55e-07 $X=106705 $Y=600 $D=1
M175 vss! 169 425 vss! NMOS_VTL L=5e-08 W=9e-08 AD=1.26e-14 AS=9e-15 PD=4.6e-07 PS=3.8e-07 $X=107440 $Y=600 $D=1
M176 170 425 vss! vss! NMOS_VTL L=5e-08 W=9e-08 AD=1.5525e-14 AS=1.26e-14 PD=5.25e-07 PS=4.6e-07 $X=107820 $Y=600 $D=1
M177 169 165 170 vss! NMOS_VTL L=5e-08 W=9e-08 AD=1.2375e-14 AS=1.5525e-14 PD=4.55e-07 PS=5.25e-07 $X=108265 $Y=600 $D=1
M178 170 rs1_sel<15> 41 vss! NMOS_VTL L=5e-08 W=9e-08 AD=1.89e-14 AS=1.2375e-14 PD=6e-07 PS=4.55e-07 $X=109075 $Y=600 $D=1
M179 44 rs2_sel<15> 170 vss! NMOS_VTL L=5e-08 W=9e-08 AD=1.2375e-14 AS=1.89e-14 PD=4.55e-07 PS=6e-07 $X=109595 $Y=600 $D=1
M180 172 rs2_sel<15> vss! vss! NMOS_VTL L=5e-08 W=9e-08 AD=9e-15 AS=9e-15 PD=3.8e-07 PS=3.8e-07 $X=110330 $Y=600 $D=1
M181 vss! rd_sel<14> 173 vss! NMOS_VTL L=5e-08 W=9e-08 AD=1.26e-14 AS=9e-15 PD=4.6e-07 PS=3.8e-07 $X=110990 $Y=600 $D=1
M182 176 rs1_sel<14> vss! vss! NMOS_VTL L=5e-08 W=9e-08 AD=9e-15 AS=1.26e-14 PD=3.8e-07 PS=4.6e-07 $X=111370 $Y=600 $D=1
M183 177 rd_sel<14> 34 vss! NMOS_VTL L=5e-08 W=9e-08 AD=1.2375e-14 AS=1.2375e-14 PD=4.55e-07 PS=4.55e-07 $X=112105 $Y=600 $D=1
M184 vss! 177 426 vss! NMOS_VTL L=5e-08 W=9e-08 AD=1.26e-14 AS=9e-15 PD=4.6e-07 PS=3.8e-07 $X=112840 $Y=600 $D=1
M185 178 426 vss! vss! NMOS_VTL L=5e-08 W=9e-08 AD=1.5525e-14 AS=1.26e-14 PD=5.25e-07 PS=4.6e-07 $X=113220 $Y=600 $D=1
M186 177 173 178 vss! NMOS_VTL L=5e-08 W=9e-08 AD=1.2375e-14 AS=1.5525e-14 PD=4.55e-07 PS=5.25e-07 $X=113665 $Y=600 $D=1
M187 178 rs1_sel<14> 41 vss! NMOS_VTL L=5e-08 W=9e-08 AD=1.89e-14 AS=1.2375e-14 PD=6e-07 PS=4.55e-07 $X=114475 $Y=600 $D=1
M188 44 rs2_sel<14> 178 vss! NMOS_VTL L=5e-08 W=9e-08 AD=1.2375e-14 AS=1.89e-14 PD=4.55e-07 PS=6e-07 $X=114995 $Y=600 $D=1
M189 180 rs2_sel<14> vss! vss! NMOS_VTL L=5e-08 W=9e-08 AD=9e-15 AS=9e-15 PD=3.8e-07 PS=3.8e-07 $X=115730 $Y=600 $D=1
M190 vss! rd_sel<13> 181 vss! NMOS_VTL L=5e-08 W=9e-08 AD=1.26e-14 AS=9e-15 PD=4.6e-07 PS=3.8e-07 $X=116390 $Y=600 $D=1
M191 184 rs1_sel<13> vss! vss! NMOS_VTL L=5e-08 W=9e-08 AD=9e-15 AS=1.26e-14 PD=3.8e-07 PS=4.6e-07 $X=116770 $Y=600 $D=1
M192 185 rd_sel<13> 34 vss! NMOS_VTL L=5e-08 W=9e-08 AD=1.2375e-14 AS=1.2375e-14 PD=4.55e-07 PS=4.55e-07 $X=117505 $Y=600 $D=1
M193 vss! 185 427 vss! NMOS_VTL L=5e-08 W=9e-08 AD=1.26e-14 AS=9e-15 PD=4.6e-07 PS=3.8e-07 $X=118240 $Y=600 $D=1
M194 186 427 vss! vss! NMOS_VTL L=5e-08 W=9e-08 AD=1.5525e-14 AS=1.26e-14 PD=5.25e-07 PS=4.6e-07 $X=118620 $Y=600 $D=1
M195 185 181 186 vss! NMOS_VTL L=5e-08 W=9e-08 AD=1.2375e-14 AS=1.5525e-14 PD=4.55e-07 PS=5.25e-07 $X=119065 $Y=600 $D=1
M196 186 rs1_sel<13> 41 vss! NMOS_VTL L=5e-08 W=9e-08 AD=1.89e-14 AS=1.2375e-14 PD=6e-07 PS=4.55e-07 $X=119875 $Y=600 $D=1
M197 44 rs2_sel<13> 186 vss! NMOS_VTL L=5e-08 W=9e-08 AD=1.2375e-14 AS=1.89e-14 PD=4.55e-07 PS=6e-07 $X=120395 $Y=600 $D=1
M198 188 rs2_sel<13> vss! vss! NMOS_VTL L=5e-08 W=9e-08 AD=9e-15 AS=9e-15 PD=3.8e-07 PS=3.8e-07 $X=121130 $Y=600 $D=1
M199 vss! rd_sel<12> 189 vss! NMOS_VTL L=5e-08 W=9e-08 AD=1.26e-14 AS=9e-15 PD=4.6e-07 PS=3.8e-07 $X=121790 $Y=600 $D=1
M200 192 rs1_sel<12> vss! vss! NMOS_VTL L=5e-08 W=9e-08 AD=9e-15 AS=1.26e-14 PD=3.8e-07 PS=4.6e-07 $X=122170 $Y=600 $D=1
M201 193 rd_sel<12> 34 vss! NMOS_VTL L=5e-08 W=9e-08 AD=1.2375e-14 AS=1.2375e-14 PD=4.55e-07 PS=4.55e-07 $X=122905 $Y=600 $D=1
M202 vss! 193 428 vss! NMOS_VTL L=5e-08 W=9e-08 AD=1.26e-14 AS=9e-15 PD=4.6e-07 PS=3.8e-07 $X=123640 $Y=600 $D=1
M203 194 428 vss! vss! NMOS_VTL L=5e-08 W=9e-08 AD=1.5525e-14 AS=1.26e-14 PD=5.25e-07 PS=4.6e-07 $X=124020 $Y=600 $D=1
M204 193 189 194 vss! NMOS_VTL L=5e-08 W=9e-08 AD=1.2375e-14 AS=1.5525e-14 PD=4.55e-07 PS=5.25e-07 $X=124465 $Y=600 $D=1
M205 194 rs1_sel<12> 41 vss! NMOS_VTL L=5e-08 W=9e-08 AD=1.89e-14 AS=1.2375e-14 PD=6e-07 PS=4.55e-07 $X=125275 $Y=600 $D=1
M206 44 rs2_sel<12> 194 vss! NMOS_VTL L=5e-08 W=9e-08 AD=1.2375e-14 AS=1.89e-14 PD=4.55e-07 PS=6e-07 $X=125795 $Y=600 $D=1
M207 196 rs2_sel<12> vss! vss! NMOS_VTL L=5e-08 W=9e-08 AD=9e-15 AS=9e-15 PD=3.8e-07 PS=3.8e-07 $X=126530 $Y=600 $D=1
M208 vss! rd_sel<11> 197 vss! NMOS_VTL L=5e-08 W=9e-08 AD=1.26e-14 AS=9e-15 PD=4.6e-07 PS=3.8e-07 $X=127190 $Y=600 $D=1
M209 200 rs1_sel<11> vss! vss! NMOS_VTL L=5e-08 W=9e-08 AD=9e-15 AS=1.26e-14 PD=3.8e-07 PS=4.6e-07 $X=127570 $Y=600 $D=1
M210 201 rd_sel<11> 34 vss! NMOS_VTL L=5e-08 W=9e-08 AD=1.2375e-14 AS=1.2375e-14 PD=4.55e-07 PS=4.55e-07 $X=128305 $Y=600 $D=1
M211 vss! 201 429 vss! NMOS_VTL L=5e-08 W=9e-08 AD=1.26e-14 AS=9e-15 PD=4.6e-07 PS=3.8e-07 $X=129040 $Y=600 $D=1
M212 202 429 vss! vss! NMOS_VTL L=5e-08 W=9e-08 AD=1.5525e-14 AS=1.26e-14 PD=5.25e-07 PS=4.6e-07 $X=129420 $Y=600 $D=1
M213 201 197 202 vss! NMOS_VTL L=5e-08 W=9e-08 AD=1.2375e-14 AS=1.5525e-14 PD=4.55e-07 PS=5.25e-07 $X=129865 $Y=600 $D=1
M214 202 rs1_sel<11> 41 vss! NMOS_VTL L=5e-08 W=9e-08 AD=1.89e-14 AS=1.2375e-14 PD=6e-07 PS=4.55e-07 $X=130675 $Y=600 $D=1
M215 44 rs2_sel<11> 202 vss! NMOS_VTL L=5e-08 W=9e-08 AD=1.2375e-14 AS=1.89e-14 PD=4.55e-07 PS=6e-07 $X=131195 $Y=600 $D=1
M216 204 rs2_sel<11> vss! vss! NMOS_VTL L=5e-08 W=9e-08 AD=9e-15 AS=9e-15 PD=3.8e-07 PS=3.8e-07 $X=131930 $Y=600 $D=1
M217 vss! rd_sel<10> 205 vss! NMOS_VTL L=5e-08 W=9e-08 AD=1.26e-14 AS=9e-15 PD=4.6e-07 PS=3.8e-07 $X=132590 $Y=600 $D=1
M218 208 rs1_sel<10> vss! vss! NMOS_VTL L=5e-08 W=9e-08 AD=9e-15 AS=1.26e-14 PD=3.8e-07 PS=4.6e-07 $X=132970 $Y=600 $D=1
M219 209 rd_sel<10> 34 vss! NMOS_VTL L=5e-08 W=9e-08 AD=1.2375e-14 AS=1.2375e-14 PD=4.55e-07 PS=4.55e-07 $X=133705 $Y=600 $D=1
M220 vss! 209 430 vss! NMOS_VTL L=5e-08 W=9e-08 AD=1.26e-14 AS=9e-15 PD=4.6e-07 PS=3.8e-07 $X=134440 $Y=600 $D=1
M221 210 430 vss! vss! NMOS_VTL L=5e-08 W=9e-08 AD=1.5525e-14 AS=1.26e-14 PD=5.25e-07 PS=4.6e-07 $X=134820 $Y=600 $D=1
M222 209 205 210 vss! NMOS_VTL L=5e-08 W=9e-08 AD=1.2375e-14 AS=1.5525e-14 PD=4.55e-07 PS=5.25e-07 $X=135265 $Y=600 $D=1
M223 210 rs1_sel<10> 41 vss! NMOS_VTL L=5e-08 W=9e-08 AD=1.89e-14 AS=1.2375e-14 PD=6e-07 PS=4.55e-07 $X=136075 $Y=600 $D=1
M224 44 rs2_sel<10> 210 vss! NMOS_VTL L=5e-08 W=9e-08 AD=1.2375e-14 AS=1.89e-14 PD=4.55e-07 PS=6e-07 $X=136595 $Y=600 $D=1
M225 212 rs2_sel<10> vss! vss! NMOS_VTL L=5e-08 W=9e-08 AD=9e-15 AS=9e-15 PD=3.8e-07 PS=3.8e-07 $X=137330 $Y=600 $D=1
M226 vss! rd_sel<9> 213 vss! NMOS_VTL L=5e-08 W=9e-08 AD=1.26e-14 AS=9e-15 PD=4.6e-07 PS=3.8e-07 $X=137990 $Y=600 $D=1
M227 216 rs1_sel<9> vss! vss! NMOS_VTL L=5e-08 W=9e-08 AD=9e-15 AS=1.26e-14 PD=3.8e-07 PS=4.6e-07 $X=138370 $Y=600 $D=1
M228 217 rd_sel<9> 34 vss! NMOS_VTL L=5e-08 W=9e-08 AD=1.2375e-14 AS=1.2375e-14 PD=4.55e-07 PS=4.55e-07 $X=139105 $Y=600 $D=1
M229 vss! 217 431 vss! NMOS_VTL L=5e-08 W=9e-08 AD=1.26e-14 AS=9e-15 PD=4.6e-07 PS=3.8e-07 $X=139840 $Y=600 $D=1
M230 218 431 vss! vss! NMOS_VTL L=5e-08 W=9e-08 AD=1.5525e-14 AS=1.26e-14 PD=5.25e-07 PS=4.6e-07 $X=140220 $Y=600 $D=1
M231 217 213 218 vss! NMOS_VTL L=5e-08 W=9e-08 AD=1.2375e-14 AS=1.5525e-14 PD=4.55e-07 PS=5.25e-07 $X=140665 $Y=600 $D=1
M232 218 rs1_sel<9> 41 vss! NMOS_VTL L=5e-08 W=9e-08 AD=1.89e-14 AS=1.2375e-14 PD=6e-07 PS=4.55e-07 $X=141475 $Y=600 $D=1
M233 44 rs2_sel<9> 218 vss! NMOS_VTL L=5e-08 W=9e-08 AD=1.2375e-14 AS=1.89e-14 PD=4.55e-07 PS=6e-07 $X=141995 $Y=600 $D=1
M234 220 rs2_sel<9> vss! vss! NMOS_VTL L=5e-08 W=9e-08 AD=9e-15 AS=9e-15 PD=3.8e-07 PS=3.8e-07 $X=142730 $Y=600 $D=1
M235 vss! rd_sel<8> 221 vss! NMOS_VTL L=5e-08 W=9e-08 AD=1.26e-14 AS=9e-15 PD=4.6e-07 PS=3.8e-07 $X=143390 $Y=600 $D=1