* SPICE NETLIST
***************************************

.SUBCKT M1_POLY_CDNS_711404484902
** N=1 EP=0 IP=0 FDC=0
.ENDS
***************************************
.SUBCKT NTAP_CDNS_711404484901
** N=1 EP=0 IP=0 FDC=0
.ENDS
***************************************
.SUBCKT PTAP_CDNS_711404484900
** N=1 EP=0 IP=0 FDC=0
.ENDS
***************************************
.SUBCKT ICV_1
** N=1 EP=0 IP=2 FDC=0
.ENDS
***************************************
.SUBCKT ICV_2
** N=1 EP=0 IP=2 FDC=0
.ENDS
***************************************
.SUBCKT ICV_3
** N=1 EP=0 IP=2 FDC=0
.ENDS
***************************************
.SUBCKT ICV_4
** N=2 EP=0 IP=2 FDC=0
.ENDS
***************************************
.SUBCKT ICV_5
** N=1 EP=0 IP=2 FDC=0
.ENDS
***************************************
.SUBCKT ICV_6
** N=1 EP=0 IP=2 FDC=0
.ENDS
***************************************
.SUBCKT ICV_7
** N=1 EP=0 IP=2 FDC=0
.ENDS
***************************************
.SUBCKT ICV_8
** N=1 EP=0 IP=2 FDC=0
.ENDS
***************************************
.SUBCKT ICV_9
** N=1 EP=0 IP=2 FDC=0
.ENDS
***************************************
.SUBCKT ICV_10
** N=2 EP=0 IP=2 FDC=0
.ENDS
***************************************
.SUBCKT ICV_11
** N=2 EP=0 IP=2 FDC=0
.ENDS
***************************************
.SUBCKT ICV_12
** N=1 EP=0 IP=2 FDC=0
.ENDS
***************************************
.SUBCKT ICV_13
** N=1 EP=0 IP=2 FDC=0
.ENDS
***************************************
.SUBCKT ICV_14
** N=1 EP=0 IP=2 FDC=0
.ENDS
***************************************
.SUBCKT ICV_15
** N=2 EP=0 IP=2 FDC=0
.ENDS
***************************************
.SUBCKT ICV_16
** N=1 EP=0 IP=3 FDC=0
.ENDS
***************************************
.SUBCKT ICV_17
** N=1 EP=0 IP=3 FDC=0
.ENDS
***************************************
.SUBCKT ICV_18
** N=1 EP=0 IP=2 FDC=0
.ENDS
***************************************
.SUBCKT ICV_19
** N=1 EP=0 IP=2 FDC=0
.ENDS
***************************************
.SUBCKT ICV_20
** N=1 EP=0 IP=2 FDC=0
.ENDS
***************************************
.SUBCKT ICV_21
** N=1 EP=0 IP=2 FDC=0
.ENDS
***************************************
.SUBCKT ICV_22
** N=1 EP=0 IP=2 FDC=0
.ENDS
***************************************
.SUBCKT ICV_23
** N=1 EP=0 IP=2 FDC=0
.ENDS
***************************************
.SUBCKT ICV_24 1 2 3 4 5 6 7 8 9 10 11 12 13 14 15 16 17 18 19 20
+ 21 22 23 24 25 26 27 28 29 30 31 32 33 34 35 36 37 38 39 40
+ 41 42 43 44 45 46 47 48 49 50 51 52 53 54 55 56 57 58 59 60
+ 61 62 63 64 65 66 67 68 69 70 71 72 73 74 75 76 77 78 79 80
+ 81 82 83 84 85 86 87 88 89 90 91 92 93 94 95 96 97 98 99 100
+ 101 102 103 104 105 106 107 108 109 110 111 112 113 114 115 116 117 118 119 120
+ 121 122 123 124 125 126 127 128 129 130 131 132 133 134 135 136 137 138 139 140
+ 141 142 143 144 145 146 147 148 149 150 151 152 153 154 155 156 157 158 159 160
+ 161 162 163 164 165 166 167 168 169 170
** N=1117 EP=170 IP=2241 FDC=2700
M0 172 1 8 8 NMOS_VTL L=5e-08 W=9e-08 AD=9e-15 AS=9e-15 PD=3.8e-07 PS=3.8e-07 $X=310 $Y=134870 $D=1
M1 173 1 9 9 NMOS_VTL L=5e-08 W=9e-08 AD=9e-15 AS=9e-15 PD=3.8e-07 PS=3.8e-07 $X=310 $Y=139500 $D=1
M2 174 1 133 133 NMOS_VTL L=5e-08 W=9e-08 AD=9e-15 AS=9e-15 PD=3.8e-07 PS=3.8e-07 $X=310 $Y=144130 $D=1
M3 175 172 2 8 NMOS_VTL L=5e-08 W=9e-08 AD=1.89e-14 AS=1.2375e-14 PD=6e-07 PS=4.55e-07 $X=1045 $Y=134870 $D=1
M4 176 173 3 9 NMOS_VTL L=5e-08 W=9e-08 AD=1.89e-14 AS=1.2375e-14 PD=6e-07 PS=4.55e-07 $X=1045 $Y=139500 $D=1
M5 177 174 4 133 NMOS_VTL L=5e-08 W=9e-08 AD=1.89e-14 AS=1.2375e-14 PD=6e-07 PS=4.55e-07 $X=1045 $Y=144130 $D=1
M6 8 1 175 8 NMOS_VTL L=5e-08 W=9e-08 AD=1.2375e-14 AS=1.89e-14 PD=4.55e-07 PS=6e-07 $X=1565 $Y=134870 $D=1
M7 9 1 176 9 NMOS_VTL L=5e-08 W=9e-08 AD=1.2375e-14 AS=1.89e-14 PD=4.55e-07 PS=6e-07 $X=1565 $Y=139500 $D=1
M8 133 1 177 133 NMOS_VTL L=5e-08 W=9e-08 AD=1.2375e-14 AS=1.89e-14 PD=4.55e-07 PS=6e-07 $X=1565 $Y=144130 $D=1
M9 178 172 2 8 NMOS_VTL L=5e-08 W=9e-08 AD=1.89e-14 AS=1.2375e-14 PD=6e-07 PS=4.55e-07 $X=2375 $Y=134870 $D=1
M10 179 173 3 9 NMOS_VTL L=5e-08 W=9e-08 AD=1.89e-14 AS=1.2375e-14 PD=6e-07 PS=4.55e-07 $X=2375 $Y=139500 $D=1
M11 180 174 4 133 NMOS_VTL L=5e-08 W=9e-08 AD=1.89e-14 AS=1.2375e-14 PD=6e-07 PS=4.55e-07 $X=2375 $Y=144130 $D=1
M12 2 1 178 8 NMOS_VTL L=5e-08 W=9e-08 AD=1.2375e-14 AS=1.89e-14 PD=4.55e-07 PS=6e-07 $X=2895 $Y=134870 $D=1
M13 3 1 179 9 NMOS_VTL L=5e-08 W=9e-08 AD=1.2375e-14 AS=1.89e-14 PD=4.55e-07 PS=6e-07 $X=2895 $Y=139500 $D=1
M14 4 1 180 133 NMOS_VTL L=5e-08 W=9e-08 AD=1.2375e-14 AS=1.89e-14 PD=4.55e-07 PS=6e-07 $X=2895 $Y=144130 $D=1
M15 181 172 2 8 NMOS_VTL L=5e-08 W=9e-08 AD=1.89e-14 AS=1.2375e-14 PD=6e-07 PS=4.55e-07 $X=3705 $Y=134870 $D=1
M16 182 173 3 9 NMOS_VTL L=5e-08 W=9e-08 AD=1.89e-14 AS=1.2375e-14 PD=6e-07 PS=4.55e-07 $X=3705 $Y=139500 $D=1
M17 183 174 4 133 NMOS_VTL L=5e-08 W=9e-08 AD=1.89e-14 AS=1.2375e-14 PD=6e-07 PS=4.55e-07 $X=3705 $Y=144130 $D=1
M18 2 1 181 8 NMOS_VTL L=5e-08 W=9e-08 AD=1.2375e-14 AS=1.89e-14 PD=4.55e-07 PS=6e-07 $X=4225 $Y=134870 $D=1
M19 3 1 182 9 NMOS_VTL L=5e-08 W=9e-08 AD=1.2375e-14 AS=1.89e-14 PD=4.55e-07 PS=6e-07 $X=4225 $Y=139500 $D=1
M20 4 1 183 133 NMOS_VTL L=5e-08 W=9e-08 AD=1.2375e-14 AS=1.89e-14 PD=4.55e-07 PS=6e-07 $X=4225 $Y=144130 $D=1
M21 187 184 181 8 NMOS_VTL L=5e-08 W=9e-08 AD=1.2375e-14 AS=1.2375e-14 PD=4.55e-07 PS=4.55e-07 $X=5035 $Y=134870 $D=1
M22 188 185 182 9 NMOS_VTL L=5e-08 W=9e-08 AD=1.2375e-14 AS=1.2375e-14 PD=4.55e-07 PS=4.55e-07 $X=5035 $Y=139500 $D=1
M23 189 186 183 133 NMOS_VTL L=5e-08 W=9e-08 AD=1.2375e-14 AS=1.2375e-14 PD=4.55e-07 PS=4.55e-07 $X=5035 $Y=144130 $D=1
M24 184 5 8 8 NMOS_VTL L=5e-08 W=9e-08 AD=9e-15 AS=9e-15 PD=3.8e-07 PS=3.8e-07 $X=5770 $Y=134870 $D=1
M25 185 5 9 9 NMOS_VTL L=5e-08 W=9e-08 AD=9e-15 AS=9e-15 PD=3.8e-07 PS=3.8e-07 $X=5770 $Y=139500 $D=1
M26 186 5 133 133 NMOS_VTL L=5e-08 W=9e-08 AD=9e-15 AS=9e-15 PD=3.8e-07 PS=3.8e-07 $X=5770 $Y=144130 $D=1
M27 190 184 178 8 NMOS_VTL L=5e-08 W=9e-08 AD=1.89e-14 AS=1.2375e-14 PD=6e-07 PS=4.55e-07 $X=6505 $Y=134870 $D=1
M28 191 185 179 9 NMOS_VTL L=5e-08 W=9e-08 AD=1.89e-14 AS=1.2375e-14 PD=6e-07 PS=4.55e-07 $X=6505 $Y=139500 $D=1
M29 192 186 180 133 NMOS_VTL L=5e-08 W=9e-08 AD=1.89e-14 AS=1.2375e-14 PD=6e-07 PS=4.55e-07 $X=6505 $Y=144130 $D=1
M30 175 5 190 8 NMOS_VTL L=5e-08 W=9e-08 AD=1.2375e-14 AS=1.89e-14 PD=4.55e-07 PS=6e-07 $X=7025 $Y=134870 $D=1
M31 176 5 191 9 NMOS_VTL L=5e-08 W=9e-08 AD=1.2375e-14 AS=1.89e-14 PD=4.55e-07 PS=6e-07 $X=7025 $Y=139500 $D=1
M32 177 5 192 133 NMOS_VTL L=5e-08 W=9e-08 AD=1.2375e-14 AS=1.89e-14 PD=4.55e-07 PS=6e-07 $X=7025 $Y=144130 $D=1
M33 193 6 8 8 NMOS_VTL L=5e-08 W=9e-08 AD=9e-15 AS=9e-15 PD=3.8e-07 PS=3.8e-07 $X=7760 $Y=134870 $D=1
M34 194 6 9 9 NMOS_VTL L=5e-08 W=9e-08 AD=9e-15 AS=9e-15 PD=3.8e-07 PS=3.8e-07 $X=7760 $Y=139500 $D=1
M35 195 6 133 133 NMOS_VTL L=5e-08 W=9e-08 AD=9e-15 AS=9e-15 PD=3.8e-07 PS=3.8e-07 $X=7760 $Y=144130 $D=1
M36 196 193 190 8 NMOS_VTL L=5e-08 W=9e-08 AD=1.89e-14 AS=1.2375e-14 PD=6e-07 PS=4.55e-07 $X=8495 $Y=134870 $D=1
M37 197 194 191 9 NMOS_VTL L=5e-08 W=9e-08 AD=1.89e-14 AS=1.2375e-14 PD=6e-07 PS=4.55e-07 $X=8495 $Y=139500 $D=1
M38 198 195 192 133 NMOS_VTL L=5e-08 W=9e-08 AD=1.89e-14 AS=1.2375e-14 PD=6e-07 PS=4.55e-07 $X=8495 $Y=144130 $D=1
M39 187 6 196 8 NMOS_VTL L=5e-08 W=9e-08 AD=1.2375e-14 AS=1.89e-14 PD=4.55e-07 PS=6e-07 $X=9015 $Y=134870 $D=1
M40 188 6 197 9 NMOS_VTL L=5e-08 W=9e-08 AD=1.2375e-14 AS=1.89e-14 PD=4.55e-07 PS=6e-07 $X=9015 $Y=139500 $D=1
M41 189 6 198 133 NMOS_VTL L=5e-08 W=9e-08 AD=1.2375e-14 AS=1.89e-14 PD=4.55e-07 PS=6e-07 $X=9015 $Y=144130 $D=1
M42 199 7 8 8 NMOS_VTL L=5e-08 W=9e-08 AD=9e-15 AS=9e-15 PD=3.8e-07 PS=3.8e-07 $X=9750 $Y=134870 $D=1
M43 200 7 9 9 NMOS_VTL L=5e-08 W=9e-08 AD=9e-15 AS=9e-15 PD=3.8e-07 PS=3.8e-07 $X=9750 $Y=139500 $D=1
M44 201 7 133 133 NMOS_VTL L=5e-08 W=9e-08 AD=9e-15 AS=9e-15 PD=3.8e-07 PS=3.8e-07 $X=9750 $Y=144130 $D=1
M45 202 199 8 8 NMOS_VTL L=5e-08 W=9e-08 AD=1.89e-14 AS=1.2375e-14 PD=6e-07 PS=4.55e-07 $X=10485 $Y=134870 $D=1
M46 203 200 9 9 NMOS_VTL L=5e-08 W=9e-08 AD=1.89e-14 AS=1.2375e-14 PD=6e-07 PS=4.55e-07 $X=10485 $Y=139500 $D=1
M47 204 201 10 133 NMOS_VTL L=5e-08 W=9e-08 AD=1.89e-14 AS=1.2375e-14 PD=6e-07 PS=4.55e-07 $X=10485 $Y=144130 $D=1
M48 11 7 202 8 NMOS_VTL L=5e-08 W=9e-08 AD=1.2375e-14 AS=1.89e-14 PD=4.55e-07 PS=6e-07 $X=11005 $Y=134870 $D=1
M49 12 7 203 9 NMOS_VTL L=5e-08 W=9e-08 AD=1.2375e-14 AS=1.89e-14 PD=4.55e-07 PS=6e-07 $X=11005 $Y=139500 $D=1
M50 13 7 204 133 NMOS_VTL L=5e-08 W=9e-08 AD=1.2375e-14 AS=1.89e-14 PD=4.55e-07 PS=6e-07 $X=11005 $Y=144130 $D=1
M51 205 199 14 8 NMOS_VTL L=5e-08 W=9e-08 AD=1.89e-14 AS=1.2375e-14 PD=6e-07 PS=4.55e-07 $X=11815 $Y=134870 $D=1
M52 206 200 15 9 NMOS_VTL L=5e-08 W=9e-08 AD=1.89e-14 AS=1.2375e-14 PD=6e-07 PS=4.55e-07 $X=11815 $Y=139500 $D=1
M53 207 201 16 133 NMOS_VTL L=5e-08 W=9e-08 AD=1.89e-14 AS=1.2375e-14 PD=6e-07 PS=4.55e-07 $X=11815 $Y=144130 $D=1
M54 208 7 205 8 NMOS_VTL L=5e-08 W=9e-08 AD=1.2375e-14 AS=1.89e-14 PD=4.55e-07 PS=6e-07 $X=12335 $Y=134870 $D=1
M55 209 7 206 9 NMOS_VTL L=5e-08 W=9e-08 AD=1.2375e-14 AS=1.89e-14 PD=4.55e-07 PS=6e-07 $X=12335 $Y=139500 $D=1
M56 210 7 207 133 NMOS_VTL L=5e-08 W=9e-08 AD=1.2375e-14 AS=1.89e-14 PD=4.55e-07 PS=6e-07 $X=12335 $Y=144130 $D=1
M57 214 199 211 8 NMOS_VTL L=5e-08 W=9e-08 AD=1.89e-14 AS=1.2375e-14 PD=6e-07 PS=4.55e-07 $X=13145 $Y=134870 $D=1
M58 215 200 212 9 NMOS_VTL L=5e-08 W=9e-08 AD=1.89e-14 AS=1.2375e-14 PD=6e-07 PS=4.55e-07 $X=13145 $Y=139500 $D=1
M59 216 201 213 133 NMOS_VTL L=5e-08 W=9e-08 AD=1.89e-14 AS=1.2375e-14 PD=6e-07 PS=4.55e-07 $X=13145 $Y=144130 $D=1
M60 196 7 214 8 NMOS_VTL L=5e-08 W=9e-08 AD=1.2375e-14 AS=1.89e-14 PD=4.55e-07 PS=6e-07 $X=13665 $Y=134870 $D=1
M61 197 7 215 9 NMOS_VTL L=5e-08 W=9e-08 AD=1.2375e-14 AS=1.89e-14 PD=4.55e-07 PS=6e-07 $X=13665 $Y=139500 $D=1
M62 198 7 216 133 NMOS_VTL L=5e-08 W=9e-08 AD=1.2375e-14 AS=1.89e-14 PD=4.55e-07 PS=6e-07 $X=13665 $Y=144130 $D=1
M63 220 217 214 8 NMOS_VTL L=5e-08 W=9e-08 AD=1.2375e-14 AS=1.2375e-14 PD=4.55e-07 PS=4.55e-07 $X=14475 $Y=134870 $D=1
M64 221 218 215 9 NMOS_VTL L=5e-08 W=9e-08 AD=1.2375e-14 AS=1.2375e-14 PD=4.55e-07 PS=4.55e-07 $X=14475 $Y=139500 $D=1
M65 222 219 216 133 NMOS_VTL L=5e-08 W=9e-08 AD=1.2375e-14 AS=1.2375e-14 PD=4.55e-07 PS=4.55e-07 $X=14475 $Y=144130 $D=1
M66 217 17 8 8 NMOS_VTL L=5e-08 W=9e-08 AD=9e-15 AS=9e-15 PD=3.8e-07 PS=3.8e-07 $X=15210 $Y=134870 $D=1
M67 218 17 9 9 NMOS_VTL L=5e-08 W=9e-08 AD=9e-15 AS=9e-15 PD=3.8e-07 PS=3.8e-07 $X=15210 $Y=139500 $D=1
M68 219 17 133 133 NMOS_VTL L=5e-08 W=9e-08 AD=9e-15 AS=9e-15 PD=3.8e-07 PS=3.8e-07 $X=15210 $Y=144130 $D=1
M69 223 217 205 8 NMOS_VTL L=5e-08 W=9e-08 AD=1.89e-14 AS=1.2375e-14 PD=6e-07 PS=4.55e-07 $X=15945 $Y=134870 $D=1
M70 224 218 206 9 NMOS_VTL L=5e-08 W=9e-08 AD=1.89e-14 AS=1.2375e-14 PD=6e-07 PS=4.55e-07 $X=15945 $Y=139500 $D=1
M71 225 219 207 133 NMOS_VTL L=5e-08 W=9e-08 AD=1.89e-14 AS=1.2375e-14 PD=6e-07 PS=4.55e-07 $X=15945 $Y=144130 $D=1
M72 202 17 223 8 NMOS_VTL L=5e-08 W=9e-08 AD=1.2375e-14 AS=1.89e-14 PD=4.55e-07 PS=6e-07 $X=16465 $Y=134870 $D=1
M73 203 17 224 9 NMOS_VTL L=5e-08 W=9e-08 AD=1.2375e-14 AS=1.89e-14 PD=4.55e-07 PS=6e-07 $X=16465 $Y=139500 $D=1
M74 204 17 225 133 NMOS_VTL L=5e-08 W=9e-08 AD=1.2375e-14 AS=1.89e-14 PD=4.55e-07 PS=6e-07 $X=16465 $Y=144130 $D=1
M75 226 18 8 8 NMOS_VTL L=5e-08 W=9e-08 AD=9e-15 AS=9e-15 PD=3.8e-07 PS=3.8e-07 $X=17200 $Y=134870 $D=1
M76 227 18 9 9 NMOS_VTL L=5e-08 W=9e-08 AD=9e-15 AS=9e-15 PD=3.8e-07 PS=3.8e-07 $X=17200 $Y=139500 $D=1
M77 228 18 133 133 NMOS_VTL L=5e-08 W=9e-08 AD=9e-15 AS=9e-15 PD=3.8e-07 PS=3.8e-07 $X=17200 $Y=144130 $D=1
M78 229 226 223 8 NMOS_VTL L=5e-08 W=9e-08 AD=1.89e-14 AS=1.2375e-14 PD=6e-07 PS=4.55e-07 $X=17935 $Y=134870 $D=1
M79 230 227 224 9 NMOS_VTL L=5e-08 W=9e-08 AD=1.89e-14 AS=1.2375e-14 PD=6e-07 PS=4.55e-07 $X=17935 $Y=139500 $D=1
M80 231 228 225 133 NMOS_VTL L=5e-08 W=9e-08 AD=1.89e-14 AS=1.2375e-14 PD=6e-07 PS=4.55e-07 $X=17935 $Y=144130 $D=1
M81 220 18 229 8 NMOS_VTL L=5e-08 W=9e-08 AD=1.2375e-14 AS=1.89e-14 PD=4.55e-07 PS=6e-07 $X=18455 $Y=134870 $D=1
M82 221 18 230 9 NMOS_VTL L=5e-08 W=9e-08 AD=1.2375e-14 AS=1.89e-14 PD=4.55e-07 PS=6e-07 $X=18455 $Y=139500 $D=1
M83 222 18 231 133 NMOS_VTL L=5e-08 W=9e-08 AD=1.2375e-14 AS=1.89e-14 PD=4.55e-07 PS=6e-07 $X=18455 $Y=144130 $D=1
M84 8 19 232 8 NMOS_VTL L=5e-08 W=9e-08 AD=1.26e-14 AS=9e-15 PD=4.6e-07 PS=3.8e-07 $X=19190 $Y=134870 $D=1
M85 9 19 233 9 NMOS_VTL L=5e-08 W=9e-08 AD=1.26e-14 AS=9e-15 PD=4.6e-07 PS=3.8e-07 $X=19190 $Y=139500 $D=1
M86 133 19 234 133 NMOS_VTL L=5e-08 W=9e-08 AD=1.26e-14 AS=9e-15 PD=4.6e-07 PS=3.8e-07 $X=19190 $Y=144130 $D=1
M87 235 20 8 8 NMOS_VTL L=5e-08 W=9e-08 AD=9e-15 AS=1.26e-14 PD=3.8e-07 PS=4.6e-07 $X=19570 $Y=134870 $D=1
M88 236 20 9 9 NMOS_VTL L=5e-08 W=9e-08 AD=9e-15 AS=1.26e-14 PD=3.8e-07 PS=4.6e-07 $X=19570 $Y=139500 $D=1
M89 237 20 133 133 NMOS_VTL L=5e-08 W=9e-08 AD=9e-15 AS=1.26e-14 PD=3.8e-07 PS=4.6e-07 $X=19570 $Y=144130 $D=1
M90 238 19 229 8 NMOS_VTL L=5e-08 W=9e-08 AD=1.2375e-14 AS=1.2375e-14 PD=4.55e-07 PS=4.55e-07 $X=20305 $Y=134870 $D=1
M91 239 19 230 9 NMOS_VTL L=5e-08 W=9e-08 AD=1.2375e-14 AS=1.2375e-14 PD=4.55e-07 PS=4.55e-07 $X=20305 $Y=139500 $D=1
M92 240 19 231 133 NMOS_VTL L=5e-08 W=9e-08 AD=1.2375e-14 AS=1.2375e-14 PD=4.55e-07 PS=4.55e-07 $X=20305 $Y=144130 $D=1
M93 8 238 950 8 NMOS_VTL L=5e-08 W=9e-08 AD=1.26e-14 AS=9e-15 PD=4.6e-07 PS=3.8e-07 $X=21040 $Y=134870 $D=1
M94 9 239 951 9 NMOS_VTL L=5e-08 W=9e-08 AD=1.26e-14 AS=9e-15 PD=4.6e-07 PS=3.8e-07 $X=21040 $Y=139500 $D=1
M95 133 240 952 133 NMOS_VTL L=5e-08 W=9e-08 AD=1.26e-14 AS=9e-15 PD=4.6e-07 PS=3.8e-07 $X=21040 $Y=144130 $D=1
M96 241 950 8 8 NMOS_VTL L=5e-08 W=9e-08 AD=1.5525e-14 AS=1.26e-14 PD=5.25e-07 PS=4.6e-07 $X=21420 $Y=134870 $D=1
M97 242 951 9 9 NMOS_VTL L=5e-08 W=9e-08 AD=1.5525e-14 AS=1.26e-14 PD=5.25e-07 PS=4.6e-07 $X=21420 $Y=139500 $D=1
M98 243 952 133 133 NMOS_VTL L=5e-08 W=9e-08 AD=1.5525e-14 AS=1.26e-14 PD=5.25e-07 PS=4.6e-07 $X=21420 $Y=144130 $D=1
M99 238 232 241 8 NMOS_VTL L=5e-08 W=9e-08 AD=1.2375e-14 AS=1.5525e-14 PD=4.55e-07 PS=5.25e-07 $X=21865 $Y=134870 $D=1
M100 239 233 242 9 NMOS_VTL L=5e-08 W=9e-08 AD=1.2375e-14 AS=1.5525e-14 PD=4.55e-07 PS=5.25e-07 $X=21865 $Y=139500 $D=1
M101 240 234 243 133 NMOS_VTL L=5e-08 W=9e-08 AD=1.2375e-14 AS=1.5525e-14 PD=4.55e-07 PS=5.25e-07 $X=21865 $Y=144130 $D=1
M102 241 20 244 8 NMOS_VTL L=5e-08 W=9e-08 AD=1.89e-14 AS=1.2375e-14 PD=6e-07 PS=4.55e-07 $X=22675 $Y=134870 $D=1
M103 242 20 245 9 NMOS_VTL L=5e-08 W=9e-08 AD=1.89e-14 AS=1.2375e-14 PD=6e-07 PS=4.55e-07 $X=22675 $Y=139500 $D=1
M104 243 20 246 133 NMOS_VTL L=5e-08 W=9e-08 AD=1.89e-14 AS=1.2375e-14 PD=6e-07 PS=4.55e-07 $X=22675 $Y=144130 $D=1
M105 250 21 241 8 NMOS_VTL L=5e-08 W=9e-08 AD=1.2375e-14 AS=1.89e-14 PD=4.55e-07 PS=6e-07 $X=23195 $Y=134870 $D=1
M106 251 21 242 9 NMOS_VTL L=5e-08 W=9e-08 AD=1.2375e-14 AS=1.89e-14 PD=4.55e-07 PS=6e-07 $X=23195 $Y=139500 $D=1
M107 252 21 243 133 NMOS_VTL L=5e-08 W=9e-08 AD=1.2375e-14 AS=1.89e-14 PD=4.55e-07 PS=6e-07 $X=23195 $Y=144130 $D=1
M108 247 21 8 8 NMOS_VTL L=5e-08 W=9e-08 AD=9e-15 AS=9e-15 PD=3.8e-07 PS=3.8e-07 $X=23930 $Y=134870 $D=1
M109 248 21 9 9 NMOS_VTL L=5e-08 W=9e-08 AD=9e-15 AS=9e-15 PD=3.8e-07 PS=3.8e-07 $X=23930 $Y=139500 $D=1
M110 249 21 133 133 NMOS_VTL L=5e-08 W=9e-08 AD=9e-15 AS=9e-15 PD=3.8e-07 PS=3.8e-07 $X=23930 $Y=144130 $D=1
M111 8 22 253 8 NMOS_VTL L=5e-08 W=9e-08 AD=1.26e-14 AS=9e-15 PD=4.6e-07 PS=3.8e-07 $X=24590 $Y=134870 $D=1
M112 9 22 254 9 NMOS_VTL L=5e-08 W=9e-08 AD=1.26e-14 AS=9e-15 PD=4.6e-07 PS=3.8e-07 $X=24590 $Y=139500 $D=1
M113 133 22 255 133 NMOS_VTL L=5e-08 W=9e-08 AD=1.26e-14 AS=9e-15 PD=4.6e-07 PS=3.8e-07 $X=24590 $Y=144130 $D=1
M114 256 23 8 8 NMOS_VTL L=5e-08 W=9e-08 AD=9e-15 AS=1.26e-14 PD=3.8e-07 PS=4.6e-07 $X=24970 $Y=134870 $D=1
M115 257 23 9 9 NMOS_VTL L=5e-08 W=9e-08 AD=9e-15 AS=1.26e-14 PD=3.8e-07 PS=4.6e-07 $X=24970 $Y=139500 $D=1
M116 258 23 133 133 NMOS_VTL L=5e-08 W=9e-08 AD=9e-15 AS=1.26e-14 PD=3.8e-07 PS=4.6e-07 $X=24970 $Y=144130 $D=1
M117 259 22 229 8 NMOS_VTL L=5e-08 W=9e-08 AD=1.2375e-14 AS=1.2375e-14 PD=4.55e-07 PS=4.55e-07 $X=25705 $Y=134870 $D=1
M118 260 22 230 9 NMOS_VTL L=5e-08 W=9e-08 AD=1.2375e-14 AS=1.2375e-14 PD=4.55e-07 PS=4.55e-07 $X=25705 $Y=139500 $D=1
M119 261 22 231 133 NMOS_VTL L=5e-08 W=9e-08 AD=1.2375e-14 AS=1.2375e-14 PD=4.55e-07 PS=4.55e-07 $X=25705 $Y=144130 $D=1
M120 8 259 953 8 NMOS_VTL L=5e-08 W=9e-08 AD=1.26e-14 AS=9e-15 PD=4.6e-07 PS=3.8e-07 $X=26440 $Y=134870 $D=1
M121 9 260 954 9 NMOS_VTL L=5e-08 W=9e-08 AD=1.26e-14 AS=9e-15 PD=4.6e-07 PS=3.8e-07 $X=26440 $Y=139500 $D=1
M122 133 261 955 133 NMOS_VTL L=5e-08 W=9e-08 AD=1.26e-14 AS=9e-15 PD=4.6e-07 PS=3.8e-07 $X=26440 $Y=144130 $D=1
M123 262 953 8 8 NMOS_VTL L=5e-08 W=9e-08 AD=1.5525e-14 AS=1.26e-14 PD=5.25e-07 PS=4.6e-07 $X=26820 $Y=134870 $D=1
M124 263 954 9 9 NMOS_VTL L=5e-08 W=9e-08 AD=1.5525e-14 AS=1.26e-14 PD=5.25e-07 PS=4.6e-07 $X=26820 $Y=139500 $D=1
M125 264 955 133 133 NMOS_VTL L=5e-08 W=9e-08 AD=1.5525e-14 AS=1.26e-14 PD=5.25e-07 PS=4.6e-07 $X=26820 $Y=144130 $D=1
M126 259 253 262 8 NMOS_VTL L=5e-08 W=9e-08 AD=1.2375e-14 AS=1.5525e-14 PD=4.55e-07 PS=5.25e-07 $X=27265 $Y=134870 $D=1
M127 260 254 263 9 NMOS_VTL L=5e-08 W=9e-08 AD=1.2375e-14 AS=1.5525e-14 PD=4.55e-07 PS=5.25e-07 $X=27265 $Y=139500 $D=1
M128 261 255 264 133 NMOS_VTL L=5e-08 W=9e-08 AD=1.2375e-14 AS=1.5525e-14 PD=4.55e-07 PS=5.25e-07 $X=27265 $Y=144130 $D=1
M129 262 23 244 8 NMOS_VTL L=5e-08 W=9e-08 AD=1.89e-14 AS=1.2375e-14 PD=6e-07 PS=4.55e-07 $X=28075 $Y=134870 $D=1
M130 263 23 245 9 NMOS_VTL L=5e-08 W=9e-08 AD=1.89e-14 AS=1.2375e-14 PD=6e-07 PS=4.55e-07 $X=28075 $Y=139500 $D=1
M131 264 23 246 133 NMOS_VTL L=5e-08 W=9e-08 AD=1.89e-14 AS=1.2375e-14 PD=6e-07 PS=4.55e-07 $X=28075 $Y=144130 $D=1
M132 250 24 262 8 NMOS_VTL L=5e-08 W=9e-08 AD=1.2375e-14 AS=1.89e-14 PD=4.55e-07 PS=6e-07 $X=28595 $Y=134870 $D=1
M133 251 24 263 9 NMOS_VTL L=5e-08 W=9e-08 AD=1.2375e-14 AS=1.89e-14 PD=4.55e-07 PS=6e-07 $X=28595 $Y=139500 $D=1
M134 252 24 264 133 NMOS_VTL L=5e-08 W=9e-08 AD=1.2375e-14 AS=1.89e-14 PD=4.55e-07 PS=6e-07 $X=28595 $Y=144130 $D=1
M135 265 24 8 8 NMOS_VTL L=5e-08 W=9e-08 AD=9e-15 AS=9e-15 PD=3.8e-07 PS=3.8e-07 $X=29330 $Y=134870 $D=1
M136 266 24 9 9 NMOS_VTL L=5e-08 W=9e-08 AD=9e-15 AS=9e-15 PD=3.8e-07 PS=3.8e-07 $X=29330 $Y=139500 $D=1
M137 267 24 133 133 NMOS_VTL L=5e-08 W=9e-08 AD=9e-15 AS=9e-15 PD=3.8e-07 PS=3.8e-07 $X=29330 $Y=144130 $D=1
M138 8 25 268 8 NMOS_VTL L=5e-08 W=9e-08 AD=1.26e-14 AS=9e-15 PD=4.6e-07 PS=3.8e-07 $X=29990 $Y=134870 $D=1
M139 9 25 269 9 NMOS_VTL L=5e-08 W=9e-08 AD=1.26e-14 AS=9e-15 PD=4.6e-07 PS=3.8e-07 $X=29990 $Y=139500 $D=1
M140 133 25 270 133 NMOS_VTL L=5e-08 W=9e-08 AD=1.26e-14 AS=9e-15 PD=4.6e-07 PS=3.8e-07 $X=29990 $Y=144130 $D=1
M141 271 26 8 8 NMOS_VTL L=5e-08 W=9e-08 AD=9e-15 AS=1.26e-14 PD=3.8e-07 PS=4.6e-07 $X=30370 $Y=134870 $D=1
M142 272 26 9 9 NMOS_VTL L=5e-08 W=9e-08 AD=9e-15 AS=1.26e-14 PD=3.8e-07 PS=4.6e-07 $X=30370 $Y=139500 $D=1
M143 273 26 133 133 NMOS_VTL L=5e-08 W=9e-08 AD=9e-15 AS=1.26e-14 PD=3.8e-07 PS=4.6e-07 $X=30370 $Y=144130 $D=1
M144 274 25 229 8 NMOS_VTL L=5e-08 W=9e-08 AD=1.2375e-14 AS=1.2375e-14 PD=4.55e-07 PS=4.55e-07 $X=31105 $Y=134870 $D=1
M145 275 25 230 9 NMOS_VTL L=5e-08 W=9e-08 AD=1.2375e-14 AS=1.2375e-14 PD=4.55e-07 PS=4.55e-07 $X=31105 $Y=139500 $D=1
M146 276 25 231 133 NMOS_VTL L=5e-08 W=9e-08 AD=1.2375e-14 AS=1.2375e-14 PD=4.55e-07 PS=4.55e-07 $X=31105 $Y=144130 $D=1
M147 8 274 956 8 NMOS_VTL L=5e-08 W=9e-08 AD=1.26e-14 AS=9e-15 PD=4.6e-07 PS=3.8e-07 $X=31840 $Y=134870 $D=1
M148 9 275 957 9 NMOS_VTL L=5e-08 W=9e-08 AD=1.26e-14 AS=9e-15 PD=4.6e-07 PS=3.8e-07 $X=31840 $Y=139500 $D=1
M149 133 276 958 133 NMOS_VTL L=5e-08 W=9e-08 AD=1.26e-14 AS=9e-15 PD=4.6e-07 PS=3.8e-07 $X=31840 $Y=144130 $D=1
M150 277 956 8 8 NMOS_VTL L=5e-08 W=9e-08 AD=1.5525e-14 AS=1.26e-14 PD=5.25e-07 PS=4.6e-07 $X=32220 $Y=134870 $D=1
M151 278 957 9 9 NMOS_VTL L=5e-08 W=9e-08 AD=1.5525e-14 AS=1.26e-14 PD=5.25e-07 PS=4.6e-07 $X=32220 $Y=139500 $D=1
M152 279 958 133 133 NMOS_VTL L=5e-08 W=9e-08 AD=1.5525e-14 AS=1.26e-14 PD=5.25e-07 PS=4.6e-07 $X=32220 $Y=144130 $D=1
M153 274 268 277 8 NMOS_VTL L=5e-08 W=9e-08 AD=1.2375e-14 AS=1.5525e-14 PD=4.55e-07 PS=5.25e-07 $X=32665 $Y=134870 $D=1
M154 275 269 278 9 NMOS_VTL L=5e-08 W=9e-08 AD=1.2375e-14 AS=1.5525e-14 PD=4.55e-07 PS=5.25e-07 $X=32665 $Y=139500 $D=1
M155 276 270 279 133 NMOS_VTL L=5e-08 W=9e-08 AD=1.2375e-14 AS=1.5525e-14 PD=4.55e-07 PS=5.25e-07 $X=32665 $Y=144130 $D=1
M156 277 26 244 8 NMOS_VTL L=5e-08 W=9e-08 AD=1.89e-14 AS=1.2375e-14 PD=6e-07 PS=4.55e-07 $X=33475 $Y=134870 $D=1
M157 278 26 245 9 NMOS_VTL L=5e-08 W=9e-08 AD=1.89e-14 AS=1.2375e-14 PD=6e-07 PS=4.55e-07 $X=33475 $Y=139500 $D=1
M158 279 26 246 133 NMOS_VTL L=5e-08 W=9e-08 AD=1.89e-14 AS=1.2375e-14 PD=6e-07 PS=4.55e-07 $X=33475 $Y=144130 $D=1
M159 250 27 277 8 NMOS_VTL L=5e-08 W=9e-08 AD=1.2375e-14 AS=1.89e-14 PD=4.55e-07 PS=6e-07 $X=33995 $Y=134870 $D=1
M160 251 27 278 9 NMOS_VTL L=5e-08 W=9e-08 AD=1.2375e-14 AS=1.89e-14 PD=4.55e-07 PS=6e-07 $X=33995 $Y=139500 $D=1
M161 252 27 279 133 NMOS_VTL L=5e-08 W=9e-08 AD=1.2375e-14 AS=1.89e-14 PD=4.55e-07 PS=6e-07 $X=33995 $Y=144130 $D=1
M162 280 27 8 8 NMOS_VTL L=5e-08 W=9e-08 AD=9e-15 AS=9e-15 PD=3.8e-07 PS=3.8e-07 $X=34730 $Y=134870 $D=1
M163 281 27 9 9 NMOS_VTL L=5e-08 W=9e-08 AD=9e-15 AS=9e-15 PD=3.8e-07 PS=3.8e-07 $X=34730 $Y=139500 $D=1
M164 282 27 133 133 NMOS_VTL L=5e-08 W=9e-08 AD=9e-15 AS=9e-15 PD=3.8e-07 PS=3.8e-07 $X=34730 $Y=144130 $D=1
M165 8 28 283 8 NMOS_VTL L=5e-08 W=9e-08 AD=1.26e-14 AS=9e-15 PD=4.6e-07 PS=3.8e-07 $X=35390 $Y=134870 $D=1
M166 9 28 284 9 NMOS_VTL L=5e-08 W=9e-08 AD=1.26e-14 AS=9e-15 PD=4.6e-07 PS=3.8e-07 $X=35390 $Y=139500 $D=1
M167 133 28 285 133 NMOS_VTL L=5e-08 W=9e-08 AD=1.26e-14 AS=9e-15 PD=4.6e-07 PS=3.8e-07 $X=35390 $Y=144130 $D=1
M168 286 29 8 8 NMOS_VTL L=5e-08 W=9e-08 AD=9e-15 AS=1.26e-14 PD=3.8e-07 PS=4.6e-07 $X=35770 $Y=134870 $D=1
M169 287 29 9 9 NMOS_VTL L=5e-08 W=9e-08 AD=9e-15 AS=1.26e-14 PD=3.8e-07 PS=4.6e-07 $X=35770 $Y=139500 $D=1
M170 288 29 133 133 NMOS_VTL L=5e-08 W=9e-08 AD=9e-15 AS=1.26e-14 PD=3.8e-07 PS=4.6e-07 $X=35770 $Y=144130 $D=1
M171 289 28 229 8 NMOS_VTL L=5e-08 W=9e-08 AD=1.2375e-14 AS=1.2375e-14 PD=4.55e-07 PS=4.55e-07 $X=36505 $Y=134870 $D=1
M172 290 28 230 9 NMOS_VTL L=5e-08 W=9e-08 AD=1.2375e-14 AS=1.2375e-14 PD=4.55e-07 PS=4.55e-07 $X=36505 $Y=139500 $D=1
M173 291 28 231 133 NMOS_VTL L=5e-08 W=9e-08 AD=1.2375e-14 AS=1.2375e-14 PD=4.55e-07 PS=4.55e-07 $X=36505 $Y=144130 $D=1
M174 8 289 959 8 NMOS_VTL L=5e-08 W=9e-08 AD=1.26e-14 AS=9e-15 PD=4.6e-07 PS=3.8e-07 $X=37240 $Y=134870 $D=1
M175 9 290 960 9 NMOS_VTL L=5e-08 W=9e-08 AD=1.26e-14 AS=9e-15 PD=4.6e-07 PS=3.8e-07 $X=37240 $Y=139500 $D=1
M176 133 291 961 133 NMOS_VTL L=5e-08 W=9e-08 AD=1.26e-14 AS=9e-15 PD=4.6e-07 PS=3.8e-07 $X=37240 $Y=144130 $D=1
M177 292 959 8 8 NMOS_VTL L=5e-08 W=9e-08 AD=1.5525e-14 AS=1.26e-14 PD=5.25e-07 PS=4.6e-07 $X=37620 $Y=134870 $D=1
M178 293 960 9 9 NMOS_VTL L=5e-08 W=9e-08 AD=1.5525e-14 AS=1.26e-14 PD=5.25e-07 PS=4.6e-07 $X=37620 $Y=139500 $D=1
M179 294 961 133 133 NMOS_VTL L=5e-08 W=9e-08 AD=1.5525e-14 AS=1.26e-14 PD=5.25e-07 PS=4.6e-07 $X=37620 $Y=144130 $D=1
M180 289 283 292 8 NMOS_VTL L=5e-08 W=9e-08 AD=1.2375e-14 AS=1.5525e-14 PD=4.55e-07 PS=5.25e-07 $X=38065 $Y=134870 $D=1
M181 290 284 293 9 NMOS_VTL L=5e-08 W=9e-08 AD=1.2375e-14 AS=1.5525e-14 PD=4.55e-07 PS=5.25e-07 $X=38065 $Y=139500 $D=1
M182 291 285 294 133 NMOS_VTL L=5e-08 W=9e-08 AD=1.2375e-14 AS=1.5525e-14 PD=4.55e-07 PS=5.25e-07 $X=38065 $Y=144130 $D=1
M183 292 29 244 8 NMOS_VTL L=5e-08 W=9e-08 AD=1.89e-14 AS=1.2375e-14 PD=6e-07 PS=4.55e-07 $X=38875 $Y=134870 $D=1
M184 293 29 245 9 NMOS_VTL L=5e-08 W=9e-08 AD=1.89e-14 AS=1.2375e-14 PD=6e-07 PS=4.55e-07 $X=38875 $Y=139500 $D=1
M185 294 29 246 133 NMOS_VTL L=5e-08 W=9e-08 AD=1.89e-14 AS=1.2375e-14 PD=6e-07 PS=4.55e-07 $X=38875 $Y=144130 $D=1
M186 250 30 292 8 NMOS_VTL L=5e-08 W=9e-08 AD=1.2375e-14 AS=1.89e-14 PD=4.55e-07 PS=6e-07 $X=39395 $Y=134870 $D=1
M187 251 30 293 9 NMOS_VTL L=5e-08 W=9e-08 AD=1.2375e-14 AS=1.89e-14 PD=4.55e-07 PS=6e-07 $X=39395 $Y=139500 $D=1
M188 252 30 294 133 NMOS_VTL L=5e-08 W=9e-08 AD=1.2375e-14 AS=1.89e-14 PD=4.55e-07 PS=6e-07 $X=39395 $Y=144130 $D=1
M189 295 30 8 8 NMOS_VTL L=5e-08 W=9e-08 AD=9e-15 AS=9e-15 PD=3.8e-07 PS=3.8e-07 $X=40130 $Y=134870 $D=1
M190 296 30 9 9 NMOS_VTL L=5e-08 W=9e-08 AD=9e-15 AS=9e-15 PD=3.8e-07 PS=3.8e-07 $X=40130 $Y=139500 $D=1
M191 297 30 133 133 NMOS_VTL L=5e-08 W=9e-08 AD=9e-15 AS=9e-15 PD=3.8e-07 PS=3.8e-07 $X=40130 $Y=144130 $D=1
M192 8 31 298 8 NMOS_VTL L=5e-08 W=9e-08 AD=1.26e-14 AS=9e-15 PD=4.6e-07 PS=3.8e-07 $X=40790 $Y=134870 $D=1
M193 9 31 299 9 NMOS_VTL L=5e-08 W=9e-08 AD=1.26e-14 AS=9e-15 PD=4.6e-07 PS=3.8e-07 $X=40790 $Y=139500 $D=1
M194 133 31 300 133 NMOS_VTL L=5e-08 W=9e-08 AD=1.26e-14 AS=9e-15 PD=4.6e-07 PS=3.8e-07 $X=40790 $Y=144130 $D=1
M195 301 32 8 8 NMOS_VTL L=5e-08 W=9e-08 AD=9e-15 AS=1.26e-14 PD=3.8e-07 PS=4.6e-07 $X=41170 $Y=134870 $D=1
M196 302 32 9 9 NMOS_VTL L=5e-08 W=9e-08 AD=9e-15 AS=1.26e-14 PD=3.8e-07 PS=4.6e-07 $X=41170 $Y=139500 $D=1
M197 303 32 133 133 NMOS_VTL L=5e-08 W=9e-08 AD=9e-15 AS=1.26e-14 PD=3.8e-07 PS=4.6e-07 $X=41170 $Y=144130 $D=1
M198 304 31 229 8 NMOS_VTL L=5e-08 W=9e-08 AD=1.2375e-14 AS=1.2375e-14 PD=4.55e-07 PS=4.55e-07 $X=41905 $Y=134870 $D=1
M199 305 31 230 9 NMOS_VTL L=5e-08 W=9e-08 AD=1.2375e-14 AS=1.2375e-14 PD=4.55e-07 PS=4.55e-07 $X=41905 $Y=139500 $D=1
M200 306 31 231 133 NMOS_VTL L=5e-08 W=9e-08 AD=1.2375e-14 AS=1.2375e-14 PD=4.55e-07 PS=4.55e-07 $X=41905 $Y=144130 $D=1
M201 8 304 962 8 NMOS_VTL L=5e-08 W=9e-08 AD=1.26e-14 AS=9e-15 PD=4.6e-07 PS=3.8e-07 $X=42640 $Y=134870 $D=1
M202 9 305 963 9 NMOS_VTL L=5e-08 W=9e-08 AD=1.26e-14 AS=9e-15 PD=4.6e-07 PS=3.8e-07 $X=42640 $Y=139500 $D=1
M203 133 306 964 133 NMOS_VTL L=5e-08 W=9e-08 AD=1.26e-14 AS=9e-15 PD=4.6e-07 PS=3.8e-07 $X=42640 $Y=144130 $D=1
M204 307 962 8 8 NMOS_VTL L=5e-08 W=9e-08 AD=1.5525e-14 AS=1.26e-14 PD=5.25e-07 PS=4.6e-07 $X=43020 $Y=134870 $D=1
M205 308 963 9 9 NMOS_VTL L=5e-08 W=9e-08 AD=1.5525e-14 AS=1.26e-14 PD=5.25e-07 PS=4.6e-07 $X=43020 $Y=139500 $D=1
M206 309 964 133 133 NMOS_VTL L=5e-08 W=9e-08 AD=1.5525e-14 AS=1.26e-14 PD=5.25e-07 PS=4.6e-07 $X=43020 $Y=144130 $D=1
M207 304 298 307 8 NMOS_VTL L=5e-08 W=9e-08 AD=1.2375e-14 AS=1.5525e-14 PD=4.55e-07 PS=5.25e-07 $X=43465 $Y=134870 $D=1
M208 305 299 308 9 NMOS_VTL L=5e-08 W=9e-08 AD=1.2375e-14 AS=1.5525e-14 PD=4.55e-07 PS=5.25e-07 $X=43465 $Y=139500 $D=1
M209 306 300 309 133 NMOS_VTL L=5e-08 W=9e-08 AD=1.2375e-14 AS=1.5525e-14 PD=4.55e-07 PS=5.25e-07 $X=43465 $Y=144130 $D=1
M210 307 32 244 8 NMOS_VTL L=5e-08 W=9e-08 AD=1.89e-14 AS=1.2375e-14 PD=6e-07 PS=4.55e-07 $X=44275 $Y=134870 $D=1
M211 308 32 245 9 NMOS_VTL L=5e-08 W=9e-08 AD=1.89e-14 AS=1.2375e-14 PD=6e-07 PS=4.55e-07 $X=44275 $Y=139500 $D=1
M212 309 32 246 133 NMOS_VTL L=5e-08 W=9e-08 AD=1.89e-14 AS=1.2375e-14 PD=6e-07 PS=4.55e-07 $X=44275 $Y=144130 $D=1
M213 250 33 307 8 NMOS_VTL L=5e-08 W=9e-08 AD=1.2375e-14 AS=1.89e-14 PD=4.55e-07 PS=6e-07 $X=44795 $Y=134870 $D=1
M214 251 33 308 9 NMOS_VTL L=5e-08 W=9e-08 AD=1.2375e-14 AS=1.89e-14 PD=4.55e-07 PS=6e-07 $X=44795 $Y=139500 $D=1
M215 252 33 309 133 NMOS_VTL L=5e-08 W=9e-08 AD=1.2375e-14 AS=1.89e-14 PD=4.55e-07 PS=6e-07 $X=44795 $Y=144130 $D=1
M216 310 33 8 8 NMOS_VTL L=5e-08 W=9e-08 AD=9e-15 AS=9e-15 PD=3.8e-07 PS=3.8e-07 $X=45530 $Y=134870 $D=1
M217 311 33 9 9 NMOS_VTL L=5e-08 W=9e-08 AD=9e-15 AS=9e-15 PD=3.8e-07 PS=3.8e-07 $X=45530 $Y=139500 $D=1
M218 312 33 133 133 NMOS_VTL L=5e-08 W=9e-08 AD=9e-15 AS=9e-15 PD=3.8e-07 PS=3.8e-07 $X=45530 $Y=144130 $D=1
M219 8 34 313 8 NMOS_VTL L=5e-08 W=9e-08 AD=1.26e-14 AS=9e-15 PD=4.6e-07 PS=3.8e-07 $X=46190 $Y=134870 $D=1
M220 9 34 314 9 NMOS_VTL L=5e-08 W=9e-08 AD=1.26e-14 AS=9e-15 PD=4.6e-07 PS=3.8e-07 $X=46190 $Y=139500 $D=1
M221 133 34 315 133 NMOS_VTL L=5e-08 W=9e-08 AD=1.26e-14 AS=9e-15 PD=4.6e-07 PS=3.8e-07 $X=46190 $Y=144130 $D=1
M222 316 35 8 8 NMOS_VTL L=5e-08 W=9e-08 AD=9e-15 AS=1.26e-14 PD=3.8e-07 PS=4.6e-07 $X=46570 $Y=134870 $D=1
M223 317 35 9 9 NMOS_VTL L=5e-08 W=9e-08 AD=9e-15 AS=1.26e-14 PD=3.8e-07 PS=4.6e-07 $X=46570 $Y=139500 $D=1
M224 318 35 133 133 NMOS_VTL L=5e-08 W=9e-08 AD=9e-15 AS=1.26e-14 PD=3.8e-07 PS=4.6e-07 $X=46570 $Y=144130 $D=1
M225 319 34 229 8 NMOS_VTL L=5e-08 W=9e-08 AD=1.2375e-14 AS=1.2375e-14 PD=4.55e-07 PS=4.55e-07 $X=47305 $Y=134870 $D=1
M226 320 34 230 9 NMOS_VTL L=5e-08 W=9e-08 AD=1.2375e-14 AS=1.2375e-14 PD=4.55e-07 PS=4.55e-07 $X=47305 $Y=139500 $D=1
M227 321 34 231 133 NMOS_VTL L=5e-08 W=9e-08 AD=1.2375e-14 AS=1.2375e-14 PD=4.55e-07 PS=4.55e-07 $X=47305 $Y=144130 $D=1
M228 8 319 965 8 NMOS_VTL L=5e-08 W=9e-08 AD=1.26e-14 AS=9e-15 PD=4.6e-07 PS=3.8e-07 $X=48040 $Y=134870 $D=1
M229 9 320 966 9 NMOS_VTL L=5e-08 W=9e-08 AD=1.26e-14 AS=9e-15 PD=4.6e-07 PS=3.8e-07 $X=48040 $Y=139500 $D=1
M230 133 321 967 133 NMOS_VTL L=5e-08 W=9e-08 AD=1.26e-14 AS=9e-15 PD=4.6e-07 PS=3.8e-07 $X=48040 $Y=144130 $D=1
M231 322 965 8 8 NMOS_VTL L=5e-08 W=9e-08 AD=1.5525e-14 AS=1.26e-14 PD=5.25e-07 PS=4.6e-07 $X=48420 $Y=134870 $D=1
M232 323 966 9 9 NMOS_VTL L=5e-08 W=9e-08 AD=1.5525e-14 AS=1.26e-14 PD=5.25e-07 PS=4.6e-07 $X=48420 $Y=139500 $D=1
M233 324 967 133 133 NMOS_VTL L=5e-08 W=9e-08 AD=1.5525e-14 AS=1.26e-14 PD=5.25e-07 PS=4.6e-07 $X=48420 $Y=144130 $D=1
M234 319 313 322 8 NMOS_VTL L=5e-08 W=9e-08 AD=1.2375e-14 AS=1.5525e-14 PD=4.55e-07 PS=5.25e-07 $X=48865 $Y=134870 $D=1
M235 320 314 323 9 NMOS_VTL L=5e-08 W=9e-08 AD=1.2375e-14 AS=1.5525e-14 PD=4.55e-07 PS=5.25e-07 $X=48865 $Y=139500 $D=1
M236 321 315 324 133 NMOS_VTL L=5e-08 W=9e-08 AD=1.2375e-14 AS=1.5525e-14 PD=4.55e-07 PS=5.25e-07 $X=48865 $Y=144130 $D=1
M237 322 35 244 8 NMOS_VTL L=5e-08 W=9e-08 AD=1.89e-14 AS=1.2375e-14 PD=6e-07 PS=4.55e-07 $X=49675 $Y=134870 $D=1
M238 323 35 245 9 NMOS_VTL L=5e-08 W=9e-08 AD=1.89e-14 AS=1.2375e-14 PD=6e-07 PS=4.55e-07 $X=49675 $Y=139500 $D=1
M239 324 35 246 133 NMOS_VTL L=5e-08 W=9e-08 AD=1.89e-14 AS=1.2375e-14 PD=6e-07 PS=4.55e-07 $X=49675 $Y=144130 $D=1