* SPICE NETLIST
***************************************

.SUBCKT M1_POLY_CDNS_712253429492
** N=1 EP=0 IP=0 FDC=0
.ENDS
***************************************
.SUBCKT NTAP_CDNS_712253429491
** N=1 EP=0 IP=0 FDC=0
.ENDS
***************************************
.SUBCKT PTAP_CDNS_712253429490
** N=1 EP=0 IP=0 FDC=0
.ENDS
***************************************
.SUBCKT ICV_1
** N=1 EP=0 IP=2 FDC=0
.ENDS
***************************************
.SUBCKT ICV_2
** N=1 EP=0 IP=2 FDC=0
.ENDS
***************************************
.SUBCKT ICV_3
** N=1 EP=0 IP=2 FDC=0
.ENDS
***************************************
.SUBCKT ICV_4
** N=2 EP=0 IP=2 FDC=0
.ENDS
***************************************
.SUBCKT ICV_5
** N=1 EP=0 IP=2 FDC=0
.ENDS
***************************************
.SUBCKT ICV_6
** N=1 EP=0 IP=2 FDC=0
.ENDS
***************************************
.SUBCKT ICV_7
** N=1 EP=0 IP=2 FDC=0
.ENDS
***************************************
.SUBCKT ICV_8
** N=1 EP=0 IP=2 FDC=0
.ENDS
***************************************
.SUBCKT ICV_9
** N=1 EP=0 IP=2 FDC=0
.ENDS
***************************************
.SUBCKT ICV_10
** N=2 EP=0 IP=2 FDC=0
.ENDS
***************************************
.SUBCKT ICV_11
** N=2 EP=0 IP=2 FDC=0
.ENDS
***************************************
.SUBCKT ICV_12
** N=1 EP=0 IP=2 FDC=0
.ENDS
***************************************
.SUBCKT ICV_13
** N=1 EP=0 IP=2 FDC=0
.ENDS
***************************************
.SUBCKT ICV_14
** N=1 EP=0 IP=2 FDC=0
.ENDS
***************************************
.SUBCKT ICV_15
** N=2 EP=0 IP=2 FDC=0
.ENDS
***************************************
.SUBCKT ICV_16
** N=1 EP=0 IP=3 FDC=0
.ENDS
***************************************
.SUBCKT ICV_17
** N=1 EP=0 IP=3 FDC=0
.ENDS
***************************************
.SUBCKT ICV_18
** N=1 EP=0 IP=2 FDC=0
.ENDS
***************************************
.SUBCKT ICV_19
** N=1 EP=0 IP=2 FDC=0
.ENDS
***************************************
.SUBCKT ICV_20
** N=1 EP=0 IP=2 FDC=0
.ENDS
***************************************
.SUBCKT ICV_21
** N=1 EP=0 IP=2 FDC=0
.ENDS
***************************************
.SUBCKT ICV_22
** N=1 EP=0 IP=2 FDC=0
.ENDS
***************************************
.SUBCKT ICV_23
** N=1 EP=0 IP=2 FDC=0
.ENDS
***************************************
.SUBCKT ICV_24 1 2 3 4 5 6 7 8 9 10 11 12 13 14 15 16 17 18 19 20
+ 21 22 23 24 25 26 27 28 29 30 31 32 33 34 35 36 37 38 39 40
+ 41 42 43 44 45 46 47 48 49 50 51 52 53 54 55 56 57 58 59 60
+ 61 62 63 64 65 66 67 68 69 70 71 72 73 74 75 76 77 78 79 80
+ 81 82 83 84 85 86 87 88 89 90 91 92 93 94 95 96 97 98 99 100
+ 101 102 103 104 105 106 107 108 109 110 111 112 113 114 115 116 117 118 119 120
+ 121 122 123 124 125 126 127 128 129 130 131 132 133 134 135 136 137 138 139 140
+ 141 142 143 144 145 146 147 148 149 150 151 152 153 154 155 156 157 158 159 160
+ 161 162 163 164 165 166 167 168 169 170 171 172
** N=1092 EP=172 IP=2241 FDC=2700
M0 173 1 8 8 NMOS_VTL L=5e-08 W=9e-08 AD=9e-15 AS=9e-15 PD=3.8e-07 PS=3.8e-07 $X=310 $Y=134870 $D=1
M1 174 1 9 9 NMOS_VTL L=5e-08 W=9e-08 AD=9e-15 AS=9e-15 PD=3.8e-07 PS=3.8e-07 $X=310 $Y=139500 $D=1
M2 175 1 140 140 NMOS_VTL L=5e-08 W=9e-08 AD=9e-15 AS=9e-15 PD=3.8e-07 PS=3.8e-07 $X=310 $Y=144130 $D=1
M3 176 173 2 8 NMOS_VTL L=5e-08 W=9e-08 AD=1.89e-14 AS=1.2375e-14 PD=6e-07 PS=4.55e-07 $X=1045 $Y=134870 $D=1
M4 177 174 3 9 NMOS_VTL L=5e-08 W=9e-08 AD=1.89e-14 AS=1.2375e-14 PD=6e-07 PS=4.55e-07 $X=1045 $Y=139500 $D=1
M5 178 175 4 140 NMOS_VTL L=5e-08 W=9e-08 AD=1.89e-14 AS=1.2375e-14 PD=6e-07 PS=4.55e-07 $X=1045 $Y=144130 $D=1
M6 8 1 176 8 NMOS_VTL L=5e-08 W=9e-08 AD=1.2375e-14 AS=1.89e-14 PD=4.55e-07 PS=6e-07 $X=1565 $Y=134870 $D=1
M7 9 1 177 9 NMOS_VTL L=5e-08 W=9e-08 AD=1.2375e-14 AS=1.89e-14 PD=4.55e-07 PS=6e-07 $X=1565 $Y=139500 $D=1
M8 140 1 178 140 NMOS_VTL L=5e-08 W=9e-08 AD=1.2375e-14 AS=1.89e-14 PD=4.55e-07 PS=6e-07 $X=1565 $Y=144130 $D=1
M9 179 173 2 8 NMOS_VTL L=5e-08 W=9e-08 AD=1.89e-14 AS=1.2375e-14 PD=6e-07 PS=4.55e-07 $X=2375 $Y=134870 $D=1
M10 180 174 3 9 NMOS_VTL L=5e-08 W=9e-08 AD=1.89e-14 AS=1.2375e-14 PD=6e-07 PS=4.55e-07 $X=2375 $Y=139500 $D=1
M11 181 175 4 140 NMOS_VTL L=5e-08 W=9e-08 AD=1.89e-14 AS=1.2375e-14 PD=6e-07 PS=4.55e-07 $X=2375 $Y=144130 $D=1
M12 2 1 179 8 NMOS_VTL L=5e-08 W=9e-08 AD=1.2375e-14 AS=1.89e-14 PD=4.55e-07 PS=6e-07 $X=2895 $Y=134870 $D=1
M13 3 1 180 9 NMOS_VTL L=5e-08 W=9e-08 AD=1.2375e-14 AS=1.89e-14 PD=4.55e-07 PS=6e-07 $X=2895 $Y=139500 $D=1
M14 4 1 181 140 NMOS_VTL L=5e-08 W=9e-08 AD=1.2375e-14 AS=1.89e-14 PD=4.55e-07 PS=6e-07 $X=2895 $Y=144130 $D=1
M15 182 173 2 8 NMOS_VTL L=5e-08 W=9e-08 AD=1.89e-14 AS=1.2375e-14 PD=6e-07 PS=4.55e-07 $X=3705 $Y=134870 $D=1
M16 183 174 3 9 NMOS_VTL L=5e-08 W=9e-08 AD=1.89e-14 AS=1.2375e-14 PD=6e-07 PS=4.55e-07 $X=3705 $Y=139500 $D=1
M17 184 175 4 140 NMOS_VTL L=5e-08 W=9e-08 AD=1.89e-14 AS=1.2375e-14 PD=6e-07 PS=4.55e-07 $X=3705 $Y=144130 $D=1
M18 2 1 182 8 NMOS_VTL L=5e-08 W=9e-08 AD=1.2375e-14 AS=1.89e-14 PD=4.55e-07 PS=6e-07 $X=4225 $Y=134870 $D=1
M19 3 1 183 9 NMOS_VTL L=5e-08 W=9e-08 AD=1.2375e-14 AS=1.89e-14 PD=4.55e-07 PS=6e-07 $X=4225 $Y=139500 $D=1
M20 4 1 184 140 NMOS_VTL L=5e-08 W=9e-08 AD=1.2375e-14 AS=1.89e-14 PD=4.55e-07 PS=6e-07 $X=4225 $Y=144130 $D=1
M21 188 185 182 8 NMOS_VTL L=5e-08 W=9e-08 AD=1.2375e-14 AS=1.2375e-14 PD=4.55e-07 PS=4.55e-07 $X=5035 $Y=134870 $D=1
M22 189 186 183 9 NMOS_VTL L=5e-08 W=9e-08 AD=1.2375e-14 AS=1.2375e-14 PD=4.55e-07 PS=4.55e-07 $X=5035 $Y=139500 $D=1
M23 190 187 184 140 NMOS_VTL L=5e-08 W=9e-08 AD=1.2375e-14 AS=1.2375e-14 PD=4.55e-07 PS=4.55e-07 $X=5035 $Y=144130 $D=1
M24 185 5 8 8 NMOS_VTL L=5e-08 W=9e-08 AD=9e-15 AS=9e-15 PD=3.8e-07 PS=3.8e-07 $X=5770 $Y=134870 $D=1
M25 186 5 9 9 NMOS_VTL L=5e-08 W=9e-08 AD=9e-15 AS=9e-15 PD=3.8e-07 PS=3.8e-07 $X=5770 $Y=139500 $D=1
M26 187 5 140 140 NMOS_VTL L=5e-08 W=9e-08 AD=9e-15 AS=9e-15 PD=3.8e-07 PS=3.8e-07 $X=5770 $Y=144130 $D=1
M27 191 185 179 8 NMOS_VTL L=5e-08 W=9e-08 AD=1.89e-14 AS=1.2375e-14 PD=6e-07 PS=4.55e-07 $X=6505 $Y=134870 $D=1
M28 192 186 180 9 NMOS_VTL L=5e-08 W=9e-08 AD=1.89e-14 AS=1.2375e-14 PD=6e-07 PS=4.55e-07 $X=6505 $Y=139500 $D=1
M29 193 187 181 140 NMOS_VTL L=5e-08 W=9e-08 AD=1.89e-14 AS=1.2375e-14 PD=6e-07 PS=4.55e-07 $X=6505 $Y=144130 $D=1
M30 176 5 191 8 NMOS_VTL L=5e-08 W=9e-08 AD=1.2375e-14 AS=1.89e-14 PD=4.55e-07 PS=6e-07 $X=7025 $Y=134870 $D=1
M31 177 5 192 9 NMOS_VTL L=5e-08 W=9e-08 AD=1.2375e-14 AS=1.89e-14 PD=4.55e-07 PS=6e-07 $X=7025 $Y=139500 $D=1
M32 178 5 193 140 NMOS_VTL L=5e-08 W=9e-08 AD=1.2375e-14 AS=1.89e-14 PD=4.55e-07 PS=6e-07 $X=7025 $Y=144130 $D=1
M33 194 6 8 8 NMOS_VTL L=5e-08 W=9e-08 AD=9e-15 AS=9e-15 PD=3.8e-07 PS=3.8e-07 $X=7760 $Y=134870 $D=1
M34 195 6 9 9 NMOS_VTL L=5e-08 W=9e-08 AD=9e-15 AS=9e-15 PD=3.8e-07 PS=3.8e-07 $X=7760 $Y=139500 $D=1
M35 196 6 140 140 NMOS_VTL L=5e-08 W=9e-08 AD=9e-15 AS=9e-15 PD=3.8e-07 PS=3.8e-07 $X=7760 $Y=144130 $D=1
M36 197 194 191 8 NMOS_VTL L=5e-08 W=9e-08 AD=1.89e-14 AS=1.2375e-14 PD=6e-07 PS=4.55e-07 $X=8495 $Y=134870 $D=1
M37 198 195 192 9 NMOS_VTL L=5e-08 W=9e-08 AD=1.89e-14 AS=1.2375e-14 PD=6e-07 PS=4.55e-07 $X=8495 $Y=139500 $D=1
M38 199 196 193 140 NMOS_VTL L=5e-08 W=9e-08 AD=1.89e-14 AS=1.2375e-14 PD=6e-07 PS=4.55e-07 $X=8495 $Y=144130 $D=1
M39 188 6 197 8 NMOS_VTL L=5e-08 W=9e-08 AD=1.2375e-14 AS=1.89e-14 PD=4.55e-07 PS=6e-07 $X=9015 $Y=134870 $D=1
M40 189 6 198 9 NMOS_VTL L=5e-08 W=9e-08 AD=1.2375e-14 AS=1.89e-14 PD=4.55e-07 PS=6e-07 $X=9015 $Y=139500 $D=1
M41 190 6 199 140 NMOS_VTL L=5e-08 W=9e-08 AD=1.2375e-14 AS=1.89e-14 PD=4.55e-07 PS=6e-07 $X=9015 $Y=144130 $D=1
M42 200 7 8 8 NMOS_VTL L=5e-08 W=9e-08 AD=9e-15 AS=9e-15 PD=3.8e-07 PS=3.8e-07 $X=9750 $Y=134870 $D=1
M43 201 7 9 9 NMOS_VTL L=5e-08 W=9e-08 AD=9e-15 AS=9e-15 PD=3.8e-07 PS=3.8e-07 $X=9750 $Y=139500 $D=1
M44 202 7 140 140 NMOS_VTL L=5e-08 W=9e-08 AD=9e-15 AS=9e-15 PD=3.8e-07 PS=3.8e-07 $X=9750 $Y=144130 $D=1
M45 203 200 8 8 NMOS_VTL L=5e-08 W=9e-08 AD=1.89e-14 AS=1.2375e-14 PD=6e-07 PS=4.55e-07 $X=10485 $Y=134870 $D=1
M46 204 201 9 9 NMOS_VTL L=5e-08 W=9e-08 AD=1.89e-14 AS=1.2375e-14 PD=6e-07 PS=4.55e-07 $X=10485 $Y=139500 $D=1
M47 205 202 10 140 NMOS_VTL L=5e-08 W=9e-08 AD=1.89e-14 AS=1.2375e-14 PD=6e-07 PS=4.55e-07 $X=10485 $Y=144130 $D=1
M48 11 7 203 8 NMOS_VTL L=5e-08 W=9e-08 AD=1.2375e-14 AS=1.89e-14 PD=4.55e-07 PS=6e-07 $X=11005 $Y=134870 $D=1
M49 12 7 204 9 NMOS_VTL L=5e-08 W=9e-08 AD=1.2375e-14 AS=1.89e-14 PD=4.55e-07 PS=6e-07 $X=11005 $Y=139500 $D=1
M50 13 7 205 140 NMOS_VTL L=5e-08 W=9e-08 AD=1.2375e-14 AS=1.89e-14 PD=4.55e-07 PS=6e-07 $X=11005 $Y=144130 $D=1
M51 206 200 14 8 NMOS_VTL L=5e-08 W=9e-08 AD=1.89e-14 AS=1.2375e-14 PD=6e-07 PS=4.55e-07 $X=11815 $Y=134870 $D=1
M52 207 201 15 9 NMOS_VTL L=5e-08 W=9e-08 AD=1.89e-14 AS=1.2375e-14 PD=6e-07 PS=4.55e-07 $X=11815 $Y=139500 $D=1
M53 208 202 16 140 NMOS_VTL L=5e-08 W=9e-08 AD=1.89e-14 AS=1.2375e-14 PD=6e-07 PS=4.55e-07 $X=11815 $Y=144130 $D=1
M54 209 7 206 8 NMOS_VTL L=5e-08 W=9e-08 AD=1.2375e-14 AS=1.89e-14 PD=4.55e-07 PS=6e-07 $X=12335 $Y=134870 $D=1
M55 210 7 207 9 NMOS_VTL L=5e-08 W=9e-08 AD=1.2375e-14 AS=1.89e-14 PD=4.55e-07 PS=6e-07 $X=12335 $Y=139500 $D=1
M56 211 7 208 140 NMOS_VTL L=5e-08 W=9e-08 AD=1.2375e-14 AS=1.89e-14 PD=4.55e-07 PS=6e-07 $X=12335 $Y=144130 $D=1
M57 215 200 212 8 NMOS_VTL L=5e-08 W=9e-08 AD=1.89e-14 AS=1.2375e-14 PD=6e-07 PS=4.55e-07 $X=13145 $Y=134870 $D=1
M58 216 201 213 9 NMOS_VTL L=5e-08 W=9e-08 AD=1.89e-14 AS=1.2375e-14 PD=6e-07 PS=4.55e-07 $X=13145 $Y=139500 $D=1
M59 217 202 214 140 NMOS_VTL L=5e-08 W=9e-08 AD=1.89e-14 AS=1.2375e-14 PD=6e-07 PS=4.55e-07 $X=13145 $Y=144130 $D=1
M60 197 7 215 8 NMOS_VTL L=5e-08 W=9e-08 AD=1.2375e-14 AS=1.89e-14 PD=4.55e-07 PS=6e-07 $X=13665 $Y=134870 $D=1
M61 198 7 216 9 NMOS_VTL L=5e-08 W=9e-08 AD=1.2375e-14 AS=1.89e-14 PD=4.55e-07 PS=6e-07 $X=13665 $Y=139500 $D=1
M62 199 7 217 140 NMOS_VTL L=5e-08 W=9e-08 AD=1.2375e-14 AS=1.89e-14 PD=4.55e-07 PS=6e-07 $X=13665 $Y=144130 $D=1
M63 221 218 215 8 NMOS_VTL L=5e-08 W=9e-08 AD=1.2375e-14 AS=1.2375e-14 PD=4.55e-07 PS=4.55e-07 $X=14475 $Y=134870 $D=1
M64 222 219 216 9 NMOS_VTL L=5e-08 W=9e-08 AD=1.2375e-14 AS=1.2375e-14 PD=4.55e-07 PS=4.55e-07 $X=14475 $Y=139500 $D=1
M65 223 220 217 140 NMOS_VTL L=5e-08 W=9e-08 AD=1.2375e-14 AS=1.2375e-14 PD=4.55e-07 PS=4.55e-07 $X=14475 $Y=144130 $D=1
M66 218 17 8 8 NMOS_VTL L=5e-08 W=9e-08 AD=9e-15 AS=9e-15 PD=3.8e-07 PS=3.8e-07 $X=15210 $Y=134870 $D=1
M67 219 17 9 9 NMOS_VTL L=5e-08 W=9e-08 AD=9e-15 AS=9e-15 PD=3.8e-07 PS=3.8e-07 $X=15210 $Y=139500 $D=1
M68 220 17 140 140 NMOS_VTL L=5e-08 W=9e-08 AD=9e-15 AS=9e-15 PD=3.8e-07 PS=3.8e-07 $X=15210 $Y=144130 $D=1
M69 224 218 206 8 NMOS_VTL L=5e-08 W=9e-08 AD=1.89e-14 AS=1.2375e-14 PD=6e-07 PS=4.55e-07 $X=15945 $Y=134870 $D=1
M70 225 219 207 9 NMOS_VTL L=5e-08 W=9e-08 AD=1.89e-14 AS=1.2375e-14 PD=6e-07 PS=4.55e-07 $X=15945 $Y=139500 $D=1
M71 226 220 208 140 NMOS_VTL L=5e-08 W=9e-08 AD=1.89e-14 AS=1.2375e-14 PD=6e-07 PS=4.55e-07 $X=15945 $Y=144130 $D=1
M72 203 17 224 8 NMOS_VTL L=5e-08 W=9e-08 AD=1.2375e-14 AS=1.89e-14 PD=4.55e-07 PS=6e-07 $X=16465 $Y=134870 $D=1
M73 204 17 225 9 NMOS_VTL L=5e-08 W=9e-08 AD=1.2375e-14 AS=1.89e-14 PD=4.55e-07 PS=6e-07 $X=16465 $Y=139500 $D=1
M74 205 17 226 140 NMOS_VTL L=5e-08 W=9e-08 AD=1.2375e-14 AS=1.89e-14 PD=4.55e-07 PS=6e-07 $X=16465 $Y=144130 $D=1
M75 227 18 8 8 NMOS_VTL L=5e-08 W=9e-08 AD=9e-15 AS=9e-15 PD=3.8e-07 PS=3.8e-07 $X=17200 $Y=134870 $D=1
M76 228 18 9 9 NMOS_VTL L=5e-08 W=9e-08 AD=9e-15 AS=9e-15 PD=3.8e-07 PS=3.8e-07 $X=17200 $Y=139500 $D=1
M77 229 18 140 140 NMOS_VTL L=5e-08 W=9e-08 AD=9e-15 AS=9e-15 PD=3.8e-07 PS=3.8e-07 $X=17200 $Y=144130 $D=1
M78 230 227 224 8 NMOS_VTL L=5e-08 W=9e-08 AD=1.89e-14 AS=1.2375e-14 PD=6e-07 PS=4.55e-07 $X=17935 $Y=134870 $D=1
M79 231 228 225 9 NMOS_VTL L=5e-08 W=9e-08 AD=1.89e-14 AS=1.2375e-14 PD=6e-07 PS=4.55e-07 $X=17935 $Y=139500 $D=1
M80 232 229 226 140 NMOS_VTL L=5e-08 W=9e-08 AD=1.89e-14 AS=1.2375e-14 PD=6e-07 PS=4.55e-07 $X=17935 $Y=144130 $D=1
M81 221 18 230 8 NMOS_VTL L=5e-08 W=9e-08 AD=1.2375e-14 AS=1.89e-14 PD=4.55e-07 PS=6e-07 $X=18455 $Y=134870 $D=1
M82 222 18 231 9 NMOS_VTL L=5e-08 W=9e-08 AD=1.2375e-14 AS=1.89e-14 PD=4.55e-07 PS=6e-07 $X=18455 $Y=139500 $D=1
M83 223 18 232 140 NMOS_VTL L=5e-08 W=9e-08 AD=1.2375e-14 AS=1.89e-14 PD=4.55e-07 PS=6e-07 $X=18455 $Y=144130 $D=1
M84 8 19 233 8 NMOS_VTL L=5e-08 W=9e-08 AD=1.26e-14 AS=9e-15 PD=4.6e-07 PS=3.8e-07 $X=19190 $Y=134870 $D=1
M85 9 19 234 9 NMOS_VTL L=5e-08 W=9e-08 AD=1.26e-14 AS=9e-15 PD=4.6e-07 PS=3.8e-07 $X=19190 $Y=139500 $D=1
M86 140 19 235 140 NMOS_VTL L=5e-08 W=9e-08 AD=1.26e-14 AS=9e-15 PD=4.6e-07 PS=3.8e-07 $X=19190 $Y=144130 $D=1
M87 236 20 8 8 NMOS_VTL L=5e-08 W=9e-08 AD=9e-15 AS=1.26e-14 PD=3.8e-07 PS=4.6e-07 $X=19570 $Y=134870 $D=1
M88 237 20 9 9 NMOS_VTL L=5e-08 W=9e-08 AD=9e-15 AS=1.26e-14 PD=3.8e-07 PS=4.6e-07 $X=19570 $Y=139500 $D=1
M89 238 20 140 140 NMOS_VTL L=5e-08 W=9e-08 AD=9e-15 AS=1.26e-14 PD=3.8e-07 PS=4.6e-07 $X=19570 $Y=144130 $D=1
M90 239 19 230 8 NMOS_VTL L=5e-08 W=9e-08 AD=1.2375e-14 AS=1.2375e-14 PD=4.55e-07 PS=4.55e-07 $X=20305 $Y=134870 $D=1
M91 240 19 231 9 NMOS_VTL L=5e-08 W=9e-08 AD=1.2375e-14 AS=1.2375e-14 PD=4.55e-07 PS=4.55e-07 $X=20305 $Y=139500 $D=1
M92 241 19 232 140 NMOS_VTL L=5e-08 W=9e-08 AD=1.2375e-14 AS=1.2375e-14 PD=4.55e-07 PS=4.55e-07 $X=20305 $Y=144130 $D=1
M93 8 239 940 8 NMOS_VTL L=5e-08 W=9e-08 AD=1.26e-14 AS=9e-15 PD=4.6e-07 PS=3.8e-07 $X=21040 $Y=134870 $D=1
M94 9 240 941 9 NMOS_VTL L=5e-08 W=9e-08 AD=1.26e-14 AS=9e-15 PD=4.6e-07 PS=3.8e-07 $X=21040 $Y=139500 $D=1
M95 140 241 942 140 NMOS_VTL L=5e-08 W=9e-08 AD=1.26e-14 AS=9e-15 PD=4.6e-07 PS=3.8e-07 $X=21040 $Y=144130 $D=1
M96 242 940 8 8 NMOS_VTL L=5e-08 W=9e-08 AD=1.5525e-14 AS=1.26e-14 PD=5.25e-07 PS=4.6e-07 $X=21420 $Y=134870 $D=1
M97 243 941 9 9 NMOS_VTL L=5e-08 W=9e-08 AD=1.5525e-14 AS=1.26e-14 PD=5.25e-07 PS=4.6e-07 $X=21420 $Y=139500 $D=1
M98 244 942 140 140 NMOS_VTL L=5e-08 W=9e-08 AD=1.5525e-14 AS=1.26e-14 PD=5.25e-07 PS=4.6e-07 $X=21420 $Y=144130 $D=1
M99 239 233 242 8 NMOS_VTL L=5e-08 W=9e-08 AD=1.2375e-14 AS=1.5525e-14 PD=4.55e-07 PS=5.25e-07 $X=21865 $Y=134870 $D=1
M100 240 234 243 9 NMOS_VTL L=5e-08 W=9e-08 AD=1.2375e-14 AS=1.5525e-14 PD=4.55e-07 PS=5.25e-07 $X=21865 $Y=139500 $D=1
M101 241 235 244 140 NMOS_VTL L=5e-08 W=9e-08 AD=1.2375e-14 AS=1.5525e-14 PD=4.55e-07 PS=5.25e-07 $X=21865 $Y=144130 $D=1
M102 242 20 245 8 NMOS_VTL L=5e-08 W=9e-08 AD=1.89e-14 AS=1.2375e-14 PD=6e-07 PS=4.55e-07 $X=22675 $Y=134870 $D=1
M103 243 20 246 9 NMOS_VTL L=5e-08 W=9e-08 AD=1.89e-14 AS=1.2375e-14 PD=6e-07 PS=4.55e-07 $X=22675 $Y=139500 $D=1
M104 244 20 247 140 NMOS_VTL L=5e-08 W=9e-08 AD=1.89e-14 AS=1.2375e-14 PD=6e-07 PS=4.55e-07 $X=22675 $Y=144130 $D=1
M105 251 21 242 8 NMOS_VTL L=5e-08 W=9e-08 AD=1.2375e-14 AS=1.89e-14 PD=4.55e-07 PS=6e-07 $X=23195 $Y=134870 $D=1
M106 252 21 243 9 NMOS_VTL L=5e-08 W=9e-08 AD=1.2375e-14 AS=1.89e-14 PD=4.55e-07 PS=6e-07 $X=23195 $Y=139500 $D=1
M107 253 21 244 140 NMOS_VTL L=5e-08 W=9e-08 AD=1.2375e-14 AS=1.89e-14 PD=4.55e-07 PS=6e-07 $X=23195 $Y=144130 $D=1
M108 248 21 8 8 NMOS_VTL L=5e-08 W=9e-08 AD=9e-15 AS=9e-15 PD=3.8e-07 PS=3.8e-07 $X=23930 $Y=134870 $D=1
M109 249 21 9 9 NMOS_VTL L=5e-08 W=9e-08 AD=9e-15 AS=9e-15 PD=3.8e-07 PS=3.8e-07 $X=23930 $Y=139500 $D=1
M110 250 21 140 140 NMOS_VTL L=5e-08 W=9e-08 AD=9e-15 AS=9e-15 PD=3.8e-07 PS=3.8e-07 $X=23930 $Y=144130 $D=1
M111 8 22 254 8 NMOS_VTL L=5e-08 W=9e-08 AD=1.26e-14 AS=9e-15 PD=4.6e-07 PS=3.8e-07 $X=24590 $Y=134870 $D=1
M112 9 22 255 9 NMOS_VTL L=5e-08 W=9e-08 AD=1.26e-14 AS=9e-15 PD=4.6e-07 PS=3.8e-07 $X=24590 $Y=139500 $D=1
M113 140 22 256 140 NMOS_VTL L=5e-08 W=9e-08 AD=1.26e-14 AS=9e-15 PD=4.6e-07 PS=3.8e-07 $X=24590 $Y=144130 $D=1
M114 257 23 8 8 NMOS_VTL L=5e-08 W=9e-08 AD=9e-15 AS=1.26e-14 PD=3.8e-07 PS=4.6e-07 $X=24970 $Y=134870 $D=1
M115 258 23 9 9 NMOS_VTL L=5e-08 W=9e-08 AD=9e-15 AS=1.26e-14 PD=3.8e-07 PS=4.6e-07 $X=24970 $Y=139500 $D=1
M116 259 23 140 140 NMOS_VTL L=5e-08 W=9e-08 AD=9e-15 AS=1.26e-14 PD=3.8e-07 PS=4.6e-07 $X=24970 $Y=144130 $D=1
M117 260 22 230 8 NMOS_VTL L=5e-08 W=9e-08 AD=1.2375e-14 AS=1.2375e-14 PD=4.55e-07 PS=4.55e-07 $X=25705 $Y=134870 $D=1
M118 261 22 231 9 NMOS_VTL L=5e-08 W=9e-08 AD=1.2375e-14 AS=1.2375e-14 PD=4.55e-07 PS=4.55e-07 $X=25705 $Y=139500 $D=1
M119 262 22 232 140 NMOS_VTL L=5e-08 W=9e-08 AD=1.2375e-14 AS=1.2375e-14 PD=4.55e-07 PS=4.55e-07 $X=25705 $Y=144130 $D=1
M120 8 260 943 8 NMOS_VTL L=5e-08 W=9e-08 AD=1.26e-14 AS=9e-15 PD=4.6e-07 PS=3.8e-07 $X=26440 $Y=134870 $D=1
M121 9 261 944 9 NMOS_VTL L=5e-08 W=9e-08 AD=1.26e-14 AS=9e-15 PD=4.6e-07 PS=3.8e-07 $X=26440 $Y=139500 $D=1
M122 140 262 945 140 NMOS_VTL L=5e-08 W=9e-08 AD=1.26e-14 AS=9e-15 PD=4.6e-07 PS=3.8e-07 $X=26440 $Y=144130 $D=1
M123 263 943 8 8 NMOS_VTL L=5e-08 W=9e-08 AD=1.5525e-14 AS=1.26e-14 PD=5.25e-07 PS=4.6e-07 $X=26820 $Y=134870 $D=1
M124 264 944 9 9 NMOS_VTL L=5e-08 W=9e-08 AD=1.5525e-14 AS=1.26e-14 PD=5.25e-07 PS=4.6e-07 $X=26820 $Y=139500 $D=1
M125 265 945 140 140 NMOS_VTL L=5e-08 W=9e-08 AD=1.5525e-14 AS=1.26e-14 PD=5.25e-07 PS=4.6e-07 $X=26820 $Y=144130 $D=1
M126 260 254 263 8 NMOS_VTL L=5e-08 W=9e-08 AD=1.2375e-14 AS=1.5525e-14 PD=4.55e-07 PS=5.25e-07 $X=27265 $Y=134870 $D=1
M127 261 255 264 9 NMOS_VTL L=5e-08 W=9e-08 AD=1.2375e-14 AS=1.5525e-14 PD=4.55e-07 PS=5.25e-07 $X=27265 $Y=139500 $D=1
M128 262 256 265 140 NMOS_VTL L=5e-08 W=9e-08 AD=1.2375e-14 AS=1.5525e-14 PD=4.55e-07 PS=5.25e-07 $X=27265 $Y=144130 $D=1
M129 263 23 245 8 NMOS_VTL L=5e-08 W=9e-08 AD=1.89e-14 AS=1.2375e-14 PD=6e-07 PS=4.55e-07 $X=28075 $Y=134870 $D=1
M130 264 23 246 9 NMOS_VTL L=5e-08 W=9e-08 AD=1.89e-14 AS=1.2375e-14 PD=6e-07 PS=4.55e-07 $X=28075 $Y=139500 $D=1
M131 265 23 247 140 NMOS_VTL L=5e-08 W=9e-08 AD=1.89e-14 AS=1.2375e-14 PD=6e-07 PS=4.55e-07 $X=28075 $Y=144130 $D=1
M132 251 24 263 8 NMOS_VTL L=5e-08 W=9e-08 AD=1.2375e-14 AS=1.89e-14 PD=4.55e-07 PS=6e-07 $X=28595 $Y=134870 $D=1
M133 252 24 264 9 NMOS_VTL L=5e-08 W=9e-08 AD=1.2375e-14 AS=1.89e-14 PD=4.55e-07 PS=6e-07 $X=28595 $Y=139500 $D=1
M134 253 24 265 140 NMOS_VTL L=5e-08 W=9e-08 AD=1.2375e-14 AS=1.89e-14 PD=4.55e-07 PS=6e-07 $X=28595 $Y=144130 $D=1
M135 266 24 8 8 NMOS_VTL L=5e-08 W=9e-08 AD=9e-15 AS=9e-15 PD=3.8e-07 PS=3.8e-07 $X=29330 $Y=134870 $D=1
M136 267 24 9 9 NMOS_VTL L=5e-08 W=9e-08 AD=9e-15 AS=9e-15 PD=3.8e-07 PS=3.8e-07 $X=29330 $Y=139500 $D=1
M137 268 24 140 140 NMOS_VTL L=5e-08 W=9e-08 AD=9e-15 AS=9e-15 PD=3.8e-07 PS=3.8e-07 $X=29330 $Y=144130 $D=1
M138 8 25 269 8 NMOS_VTL L=5e-08 W=9e-08 AD=1.26e-14 AS=9e-15 PD=4.6e-07 PS=3.8e-07 $X=29990 $Y=134870 $D=1
M139 9 25 270 9 NMOS_VTL L=5e-08 W=9e-08 AD=1.26e-14 AS=9e-15 PD=4.6e-07 PS=3.8e-07 $X=29990 $Y=139500 $D=1
M140 140 25 271 140 NMOS_VTL L=5e-08 W=9e-08 AD=1.26e-14 AS=9e-15 PD=4.6e-07 PS=3.8e-07 $X=29990 $Y=144130 $D=1
M141 272 26 8 8 NMOS_VTL L=5e-08 W=9e-08 AD=9e-15 AS=1.26e-14 PD=3.8e-07 PS=4.6e-07 $X=30370 $Y=134870 $D=1
M142 273 26 9 9 NMOS_VTL L=5e-08 W=9e-08 AD=9e-15 AS=1.26e-14 PD=3.8e-07 PS=4.6e-07 $X=30370 $Y=139500 $D=1
M143 274 26 140 140 NMOS_VTL L=5e-08 W=9e-08 AD=9e-15 AS=1.26e-14 PD=3.8e-07 PS=4.6e-07 $X=30370 $Y=144130 $D=1
M144 275 25 230 8 NMOS_VTL L=5e-08 W=9e-08 AD=1.2375e-14 AS=1.2375e-14 PD=4.55e-07 PS=4.55e-07 $X=31105 $Y=134870 $D=1
M145 276 25 231 9 NMOS_VTL L=5e-08 W=9e-08 AD=1.2375e-14 AS=1.2375e-14 PD=4.55e-07 PS=4.55e-07 $X=31105 $Y=139500 $D=1
M146 277 25 232 140 NMOS_VTL L=5e-08 W=9e-08 AD=1.2375e-14 AS=1.2375e-14 PD=4.55e-07 PS=4.55e-07 $X=31105 $Y=144130 $D=1
M147 8 275 946 8 NMOS_VTL L=5e-08 W=9e-08 AD=1.26e-14 AS=9e-15 PD=4.6e-07 PS=3.8e-07 $X=31840 $Y=134870 $D=1
M148 9 276 947 9 NMOS_VTL L=5e-08 W=9e-08 AD=1.26e-14 AS=9e-15 PD=4.6e-07 PS=3.8e-07 $X=31840 $Y=139500 $D=1
M149 140 277 948 140 NMOS_VTL L=5e-08 W=9e-08 AD=1.26e-14 AS=9e-15 PD=4.6e-07 PS=3.8e-07 $X=31840 $Y=144130 $D=1
M150 278 946 8 8 NMOS_VTL L=5e-08 W=9e-08 AD=1.5525e-14 AS=1.26e-14 PD=5.25e-07 PS=4.6e-07 $X=32220 $Y=134870 $D=1
M151 279 947 9 9 NMOS_VTL L=5e-08 W=9e-08 AD=1.5525e-14 AS=1.26e-14 PD=5.25e-07 PS=4.6e-07 $X=32220 $Y=139500 $D=1
M152 280 948 140 140 NMOS_VTL L=5e-08 W=9e-08 AD=1.5525e-14 AS=1.26e-14 PD=5.25e-07 PS=4.6e-07 $X=32220 $Y=144130 $D=1
M153 275 269 278 8 NMOS_VTL L=5e-08 W=9e-08 AD=1.2375e-14 AS=1.5525e-14 PD=4.55e-07 PS=5.25e-07 $X=32665 $Y=134870 $D=1
M154 276 270 279 9 NMOS_VTL L=5e-08 W=9e-08 AD=1.2375e-14 AS=1.5525e-14 PD=4.55e-07 PS=5.25e-07 $X=32665 $Y=139500 $D=1
M155 277 271 280 140 NMOS_VTL L=5e-08 W=9e-08 AD=1.2375e-14 AS=1.5525e-14 PD=4.55e-07 PS=5.25e-07 $X=32665 $Y=144130 $D=1
M156 278 26 245 8 NMOS_VTL L=5e-08 W=9e-08 AD=1.89e-14 AS=1.2375e-14 PD=6e-07 PS=4.55e-07 $X=33475 $Y=134870 $D=1
M157 279 26 246 9 NMOS_VTL L=5e-08 W=9e-08 AD=1.89e-14 AS=1.2375e-14 PD=6e-07 PS=4.55e-07 $X=33475 $Y=139500 $D=1
M158 280 26 247 140 NMOS_VTL L=5e-08 W=9e-08 AD=1.89e-14 AS=1.2375e-14 PD=6e-07 PS=4.55e-07 $X=33475 $Y=144130 $D=1
M159 251 27 278 8 NMOS_VTL L=5e-08 W=9e-08 AD=1.2375e-14 AS=1.89e-14 PD=4.55e-07 PS=6e-07 $X=33995 $Y=134870 $D=1
M160 252 27 279 9 NMOS_VTL L=5e-08 W=9e-08 AD=1.2375e-14 AS=1.89e-14 PD=4.55e-07 PS=6e-07 $X=33995 $Y=139500 $D=1
M161 253 27 280 140 NMOS_VTL L=5e-08 W=9e-08 AD=1.2375e-14 AS=1.89e-14 PD=4.55e-07 PS=6e-07 $X=33995 $Y=144130 $D=1
M162 281 27 8 8 NMOS_VTL L=5e-08 W=9e-08 AD=9e-15 AS=9e-15 PD=3.8e-07 PS=3.8e-07 $X=34730 $Y=134870 $D=1
M163 282 27 9 9 NMOS_VTL L=5e-08 W=9e-08 AD=9e-15 AS=9e-15 PD=3.8e-07 PS=3.8e-07 $X=34730 $Y=139500 $D=1
M164 283 27 140 140 NMOS_VTL L=5e-08 W=9e-08 AD=9e-15 AS=9e-15 PD=3.8e-07 PS=3.8e-07 $X=34730 $Y=144130 $D=1
M165 8 28 284 8 NMOS_VTL L=5e-08 W=9e-08 AD=1.26e-14 AS=9e-15 PD=4.6e-07 PS=3.8e-07 $X=35390 $Y=134870 $D=1
M166 9 28 285 9 NMOS_VTL L=5e-08 W=9e-08 AD=1.26e-14 AS=9e-15 PD=4.6e-07 PS=3.8e-07 $X=35390 $Y=139500 $D=1
M167 140 28 286 140 NMOS_VTL L=5e-08 W=9e-08 AD=1.26e-14 AS=9e-15 PD=4.6e-07 PS=3.8e-07 $X=35390 $Y=144130 $D=1
M168 287 29 8 8 NMOS_VTL L=5e-08 W=9e-08 AD=9e-15 AS=1.26e-14 PD=3.8e-07 PS=4.6e-07 $X=35770 $Y=134870 $D=1
M169 288 29 9 9 NMOS_VTL L=5e-08 W=9e-08 AD=9e-15 AS=1.26e-14 PD=3.8e-07 PS=4.6e-07 $X=35770 $Y=139500 $D=1
M170 289 29 140 140 NMOS_VTL L=5e-08 W=9e-08 AD=9e-15 AS=1.26e-14 PD=3.8e-07 PS=4.6e-07 $X=35770 $Y=144130 $D=1
M171 290 28 230 8 NMOS_VTL L=5e-08 W=9e-08 AD=1.2375e-14 AS=1.2375e-14 PD=4.55e-07 PS=4.55e-07 $X=36505 $Y=134870 $D=1
M172 291 28 231 9 NMOS_VTL L=5e-08 W=9e-08 AD=1.2375e-14 AS=1.2375e-14 PD=4.55e-07 PS=4.55e-07 $X=36505 $Y=139500 $D=1
M173 292 28 232 140 NMOS_VTL L=5e-08 W=9e-08 AD=1.2375e-14 AS=1.2375e-14 PD=4.55e-07 PS=4.55e-07 $X=36505 $Y=144130 $D=1
M174 8 290 949 8 NMOS_VTL L=5e-08 W=9e-08 AD=1.26e-14 AS=9e-15 PD=4.6e-07 PS=3.8e-07 $X=37240 $Y=134870 $D=1
M175 9 291 950 9 NMOS_VTL L=5e-08 W=9e-08 AD=1.26e-14 AS=9e-15 PD=4.6e-07 PS=3.8e-07 $X=37240 $Y=139500 $D=1
M176 140 292 951 140 NMOS_VTL L=5e-08 W=9e-08 AD=1.26e-14 AS=9e-15 PD=4.6e-07 PS=3.8e-07 $X=37240 $Y=144130 $D=1
M177 293 949 8 8 NMOS_VTL L=5e-08 W=9e-08 AD=1.5525e-14 AS=1.26e-14 PD=5.25e-07 PS=4.6e-07 $X=37620 $Y=134870 $D=1
M178 294 950 9 9 NMOS_VTL L=5e-08 W=9e-08 AD=1.5525e-14 AS=1.26e-14 PD=5.25e-07 PS=4.6e-07 $X=37620 $Y=139500 $D=1
M179 295 951 140 140 NMOS_VTL L=5e-08 W=9e-08 AD=1.5525e-14 AS=1.26e-14 PD=5.25e-07 PS=4.6e-07 $X=37620 $Y=144130 $D=1
M180 290 284 293 8 NMOS_VTL L=5e-08 W=9e-08 AD=1.2375e-14 AS=1.5525e-14 PD=4.55e-07 PS=5.25e-07 $X=38065 $Y=134870 $D=1
M181 291 285 294 9 NMOS_VTL L=5e-08 W=9e-08 AD=1.2375e-14 AS=1.5525e-14 PD=4.55e-07 PS=5.25e-07 $X=38065 $Y=139500 $D=1
M182 292 286 295 140 NMOS_VTL L=5e-08 W=9e-08 AD=1.2375e-14 AS=1.5525e-14 PD=4.55e-07 PS=5.25e-07 $X=38065 $Y=144130 $D=1
M183 293 29 245 8 NMOS_VTL L=5e-08 W=9e-08 AD=1.89e-14 AS=1.2375e-14 PD=6e-07 PS=4.55e-07 $X=38875 $Y=134870 $D=1
M184 294 29 246 9 NMOS_VTL L=5e-08 W=9e-08 AD=1.89e-14 AS=1.2375e-14 PD=6e-07 PS=4.55e-07 $X=38875 $Y=139500 $D=1
M185 295 29 247 140 NMOS_VTL L=5e-08 W=9e-08 AD=1.89e-14 AS=1.2375e-14 PD=6e-07 PS=4.55e-07 $X=38875 $Y=144130 $D=1
M186 251 30 293 8 NMOS_VTL L=5e-08 W=9e-08 AD=1.2375e-14 AS=1.89e-14 PD=4.55e-07 PS=6e-07 $X=39395 $Y=134870 $D=1
M187 252 30 294 9 NMOS_VTL L=5e-08 W=9e-08 AD=1.2375e-14 AS=1.89e-14 PD=4.55e-07 PS=6e-07 $X=39395 $Y=139500 $D=1
M188 253 30 295 140 NMOS_VTL L=5e-08 W=9e-08 AD=1.2375e-14 AS=1.89e-14 PD=4.55e-07 PS=6e-07 $X=39395 $Y=144130 $D=1
M189 296 30 8 8 NMOS_VTL L=5e-08 W=9e-08 AD=9e-15 AS=9e-15 PD=3.8e-07 PS=3.8e-07 $X=40130 $Y=134870 $D=1
M190 297 30 9 9 NMOS_VTL L=5e-08 W=9e-08 AD=9e-15 AS=9e-15 PD=3.8e-07 PS=3.8e-07 $X=40130 $Y=139500 $D=1
M191 298 30 140 140 NMOS_VTL L=5e-08 W=9e-08 AD=9e-15 AS=9e-15 PD=3.8e-07 PS=3.8e-07 $X=40130 $Y=144130 $D=1
M192 8 31 299 8 NMOS_VTL L=5e-08 W=9e-08 AD=1.26e-14 AS=9e-15 PD=4.6e-07 PS=3.8e-07 $X=40790 $Y=134870 $D=1
M193 9 31 300 9 NMOS_VTL L=5e-08 W=9e-08 AD=1.26e-14 AS=9e-15 PD=4.6e-07 PS=3.8e-07 $X=40790 $Y=139500 $D=1
M194 140 31 301 140 NMOS_VTL L=5e-08 W=9e-08 AD=1.26e-14 AS=9e-15 PD=4.6e-07 PS=3.8e-07 $X=40790 $Y=144130 $D=1
M195 302 32 8 8 NMOS_VTL L=5e-08 W=9e-08 AD=9e-15 AS=1.26e-14 PD=3.8e-07 PS=4.6e-07 $X=41170 $Y=134870 $D=1
M196 303 32 9 9 NMOS_VTL L=5e-08 W=9e-08 AD=9e-15 AS=1.26e-14 PD=3.8e-07 PS=4.6e-07 $X=41170 $Y=139500 $D=1
M197 304 32 140 140 NMOS_VTL L=5e-08 W=9e-08 AD=9e-15 AS=1.26e-14 PD=3.8e-07 PS=4.6e-07 $X=41170 $Y=144130 $D=1
M198 305 31 230 8 NMOS_VTL L=5e-08 W=9e-08 AD=1.2375e-14 AS=1.2375e-14 PD=4.55e-07 PS=4.55e-07 $X=41905 $Y=134870 $D=1
M199 306 31 231 9 NMOS_VTL L=5e-08 W=9e-08 AD=1.2375e-14 AS=1.2375e-14 PD=4.55e-07 PS=4.55e-07 $X=41905 $Y=139500 $D=1
M200 307 31 232 140 NMOS_VTL L=5e-08 W=9e-08 AD=1.2375e-14 AS=1.2375e-14 PD=4.55e-07 PS=4.55e-07 $X=41905 $Y=144130 $D=1
M201 8 305 952 8 NMOS_VTL L=5e-08 W=9e-08 AD=1.26e-14 AS=9e-15 PD=4.6e-07 PS=3.8e-07 $X=42640 $Y=134870 $D=1
M202 9 306 953 9 NMOS_VTL L=5e-08 W=9e-08 AD=1.26e-14 AS=9e-15 PD=4.6e-07 PS=3.8e-07 $X=42640 $Y=139500 $D=1
M203 140 307 954 140 NMOS_VTL L=5e-08 W=9e-08 AD=1.26e-14 AS=9e-15 PD=4.6e-07 PS=3.8e-07 $X=42640 $Y=144130 $D=1
M204 308 952 8 8 NMOS_VTL L=5e-08 W=9e-08 AD=1.5525e-14 AS=1.26e-14 PD=5.25e-07 PS=4.6e-07 $X=43020 $Y=134870 $D=1
M205 309 953 9 9 NMOS_VTL L=5e-08 W=9e-08 AD=1.5525e-14 AS=1.26e-14 PD=5.25e-07 PS=4.6e-07 $X=43020 $Y=139500 $D=1
M206 310 954 140 140 NMOS_VTL L=5e-08 W=9e-08 AD=1.5525e-14 AS=1.26e-14 PD=5.25e-07 PS=4.6e-07 $X=43020 $Y=144130 $D=1
M207 305 299 308 8 NMOS_VTL L=5e-08 W=9e-08 AD=1.2375e-14 AS=1.5525e-14 PD=4.55e-07 PS=5.25e-07 $X=43465 $Y=134870 $D=1
M208 306 300 309 9 NMOS_VTL L=5e-08 W=9e-08 AD=1.2375e-14 AS=1.5525e-14 PD=4.55e-07 PS=5.25e-07 $X=43465 $Y=139500 $D=1
M209 307 301 310 140 NMOS_VTL L=5e-08 W=9e-08 AD=1.2375e-14 AS=1.5525e-14 PD=4.55e-07 PS=5.25e-07 $X=43465 $Y=144130 $D=1
M210 308 32 245 8 NMOS_VTL L=5e-08 W=9e-08 AD=1.89e-14 AS=1.2375e-14 PD=6e-07 PS=4.55e-07 $X=44275 $Y=134870 $D=1
M211 309 32 246 9 NMOS_VTL L=5e-08 W=9e-08 AD=1.89e-14 AS=1.2375e-14 PD=6e-07 PS=4.55e-07 $X=44275 $Y=139500 $D=1
M212 310 32 247 140 NMOS_VTL L=5e-08 W=9e-08 AD=1.89e-14 AS=1.2375e-14 PD=6e-07 PS=4.55e-07 $X=44275 $Y=144130 $D=1
M213 251 33 308 8 NMOS_VTL L=5e-08 W=9e-08 AD=1.2375e-14 AS=1.89e-14 PD=4.55e-07 PS=6e-07 $X=44795 $Y=134870 $D=1
M214 252 33 309 9 NMOS_VTL L=5e-08 W=9e-08 AD=1.2375e-14 AS=1.89e-14 PD=4.55e-07 PS=6e-07 $X=44795 $Y=139500 $D=1
M215 253 33 310 140 NMOS_VTL L=5e-08 W=9e-08 AD=1.2375e-14 AS=1.89e-14 PD=4.55e-07 PS=6e-07 $X=44795 $Y=144130 $D=1
M216 311 33 8 8 NMOS_VTL L=5e-08 W=9e-08 AD=9e-15 AS=9e-15 PD=3.8e-07 PS=3.8e-07 $X=45530 $Y=134870 $D=1
M217 312 33 9 9 NMOS_VTL L=5e-08 W=9e-08 AD=9e-15 AS=9e-15 PD=3.8e-07 PS=3.8e-07 $X=45530 $Y=139500 $D=1
M218 313 33 140 140 NMOS_VTL L=5e-08 W=9e-08 AD=9e-15 AS=9e-15 PD=3.8e-07 PS=3.8e-07 $X=45530 $Y=144130 $D=1
M219 8 34 314 8 NMOS_VTL L=5e-08 W=9e-08 AD=1.26e-14 AS=9e-15 PD=4.6e-07 PS=3.8e-07 $X=46190 $Y=134870 $D=1
M220 9 34 315 9 NMOS_VTL L=5e-08 W=9e-08 AD=1.26e-14 AS=9e-15 PD=4.6e-07 PS=3.8e-07 $X=46190 $Y=139500 $D=1
M221 140 34 316 140 NMOS_VTL L=5e-08 W=9e-08 AD=1.26e-14 AS=9e-15 PD=4.6e-07 PS=3.8e-07 $X=46190 $Y=144130 $D=1
M222 317 35 8 8 NMOS_VTL L=5e-08 W=9e-08 AD=9e-15 AS=1.26e-14 PD=3.8e-07 PS=4.6e-07 $X=46570 $Y=134870 $D=1
M223 318 35 9 9 NMOS_VTL L=5e-08 W=9e-08 AD=9e-15 AS=1.26e-14 PD=3.8e-07 PS=4.6e-07 $X=46570 $Y=139500 $D=1
M224 319 35 140 140 NMOS_VTL L=5e-08 W=9e-08 AD=9e-15 AS=1.26e-14 PD=3.8e-07 PS=4.6e-07 $X=46570 $Y=144130 $D=1
M225 320 34 230 8 NMOS_VTL L=5e-08 W=9e-08 AD=1.2375e-14 AS=1.2375e-14 PD=4.55e-07 PS=4.55e-07 $X=47305 $Y=134870 $D=1
M226 321 34 231 9 NMOS_VTL L=5e-08 W=9e-08 AD=1.2375e-14 AS=1.2375e-14 PD=4.55e-07 PS=4.55e-07 $X=47305 $Y=139500 $D=1
M227 322 34 232 140 NMOS_VTL L=5e-08 W=9e-08 AD=1.2375e-14 AS=1.2375e-14 PD=4.55e-07 PS=4.55e-07 $X=47305 $Y=144130 $D=1
M228 8 320 955 8 NMOS_VTL L=5e-08 W=9e-08 AD=1.26e-14 AS=9e-15 PD=4.6e-07 PS=3.8e-07 $X=48040 $Y=134870 $D=1
M229 9 321 956 9 NMOS_VTL L=5e-08 W=9e-08 AD=1.26e-14 AS=9e-15 PD=4.6e-07 PS=3.8e-07 $X=48040 $Y=139500 $D=1
M230 140 322 957 140 NMOS_VTL L=5e-08 W=9e-08 AD=1.26e-14 AS=9e-15 PD=4.6e-07 PS=3.8e-07 $X=48040 $Y=144130 $D=1
M231 323 955 8 8 NMOS_VTL L=5e-08 W=9e-08 AD=1.5525e-14 AS=1.26e-14 PD=5.25e-07 PS=4.6e-07 $X=48420 $Y=134870 $D=1
M232 324 956 9 9 NMOS_VTL L=5e-08 W=9e-08 AD=1.5525e-14 AS=1.26e-14 PD=5.25e-07 PS=4.6e-07 $X=48420 $Y=139500 $D=1
M233 325 957 140 140 NMOS_VTL L=5e-08 W=9e-08 AD=1.5525e-14 AS=1.26e-14 PD=5.25e-07 PS=4.6e-07 $X=48420 $Y=144130 $D=1
M234 320 314 323 8 NMOS_VTL L=5e-08 W=9e-08 AD=1.2375e-14 AS=1.5525e-14 PD=4.55e-07 PS=5.25e-07 $X=48865 $Y=134870 $D=1
M235 321 315 324 9 NMOS_VTL L=5e-08 W=9e-08 AD=1.2375e-14 AS=1.5525e-14 PD=4.55e-07 PS=5.25e-07 $X=48865 $Y=139500 $D=1
M236 322 316 325 140 NMOS_VTL L=5e-08 W=9e-08 AD=1.2375e-14 AS=1.5525e-14 PD=4.55e-07 PS=5.25e-07 $X=48865 $Y=144130 $D=1
M237 323 35 245 8 NMOS_VTL L=5e-08 W=9e-08 AD=1.89e-14 AS=1.2375e-14 PD=6e-07 PS=4.55e-07 $X=49675 $Y=134870 $D=1
M238 324 35 246 9 NMOS_VTL L=5e-08 W=9e-08 AD=1.89e-14 AS=1.2375e-14 PD=6e-07 PS=4.55e-07 $X=49675 $Y=139500 $D=1
M239 325 35 247 140 NMOS_VTL L=5e-08 W=9e-08 AD=1.89e-14 AS=1.2375e-14 PD=6e-07 PS=4.55e-07 $X=49675 $Y=144130 $D=1