* SPICE NETLIST
***************************************

.SUBCKT M1_POLY_CDNS_712283338712
** N=1 EP=0 IP=0 FDC=0
.ENDS
***************************************
.SUBCKT NTAP_CDNS_712283338711
** N=1 EP=0 IP=0 FDC=0
.ENDS
***************************************
.SUBCKT PTAP_CDNS_712283338710
** N=1 EP=0 IP=0 FDC=0
.ENDS
***************************************
.SUBCKT ICV_1
** N=1 EP=0 IP=2 FDC=0
.ENDS
***************************************
.SUBCKT ICV_2
** N=1 EP=0 IP=2 FDC=0
.ENDS
***************************************
.SUBCKT ICV_3
** N=1 EP=0 IP=2 FDC=0
.ENDS
***************************************
.SUBCKT ICV_4
** N=2 EP=0 IP=2 FDC=0
.ENDS
***************************************
.SUBCKT ICV_5
** N=1 EP=0 IP=2 FDC=0
.ENDS
***************************************
.SUBCKT ICV_6
** N=1 EP=0 IP=2 FDC=0
.ENDS
***************************************
.SUBCKT ICV_7
** N=1 EP=0 IP=2 FDC=0
.ENDS
***************************************
.SUBCKT ICV_8
** N=1 EP=0 IP=2 FDC=0
.ENDS
***************************************
.SUBCKT ICV_9
** N=1 EP=0 IP=2 FDC=0
.ENDS
***************************************
.SUBCKT ICV_10
** N=2 EP=0 IP=2 FDC=0
.ENDS
***************************************
.SUBCKT ICV_11
** N=2 EP=0 IP=2 FDC=0
.ENDS
***************************************
.SUBCKT ICV_12
** N=1 EP=0 IP=2 FDC=0
.ENDS
***************************************
.SUBCKT ICV_13
** N=1 EP=0 IP=2 FDC=0
.ENDS
***************************************
.SUBCKT ICV_14
** N=1 EP=0 IP=2 FDC=0
.ENDS
***************************************
.SUBCKT ICV_15
** N=2 EP=0 IP=2 FDC=0
.ENDS
***************************************
.SUBCKT ICV_16
** N=1 EP=0 IP=3 FDC=0
.ENDS
***************************************
.SUBCKT ICV_17
** N=1 EP=0 IP=3 FDC=0
.ENDS
***************************************
.SUBCKT ICV_18
** N=1 EP=0 IP=2 FDC=0
.ENDS
***************************************
.SUBCKT ICV_19
** N=1 EP=0 IP=2 FDC=0
.ENDS
***************************************
.SUBCKT ICV_20
** N=1 EP=0 IP=2 FDC=0
.ENDS
***************************************
.SUBCKT ICV_21
** N=1 EP=0 IP=2 FDC=0
.ENDS
***************************************
.SUBCKT ICV_22
** N=1 EP=0 IP=2 FDC=0
.ENDS
***************************************
.SUBCKT ICV_23
** N=1 EP=0 IP=2 FDC=0
.ENDS
***************************************
.SUBCKT ICV_24 1 2 3 4 5 6 7 8 9 10 11 12 13 14 15 16 17 18 19 20
+ 21 22 23 24 25 26 27 28 29 30 31 32 33 34 35 36 37 38 39 40
+ 41 42 43 44 45 46 47 48 49 50 51 52 53 54 55 56 57 58 59 60
+ 61 62 63 64 65 66 67 68 69 70 71 72 73 74 75 76 77 78 79 80
+ 81 82 83 84 85 86 87 88 89 90 91 92 93 94 95 96 97 98 99 100
+ 101 102 103 104 105 106 107 108 109 110 111 112 113 114 115 116 117 118 119 120
+ 121 122 123 124 125 126 127 128 129 130 131 132 133 134 135 136 137 138 139 140
+ 141 142 143 144 145 146 147 148 149 150 151 152 153 154 155 156 157 158 159 160
+ 161 162 163 164 165
** N=1091 EP=165 IP=2241 FDC=2700
M0 166 1 9 9 NMOS_VTL L=5e-08 W=9e-08 AD=9e-15 AS=9e-15 PD=3.8e-07 PS=3.8e-07 $X=310 $Y=134870 $D=1
M1 167 1 9 9 NMOS_VTL L=5e-08 W=9e-08 AD=9e-15 AS=9e-15 PD=3.8e-07 PS=3.8e-07 $X=310 $Y=139500 $D=1
M2 168 1 9 9 NMOS_VTL L=5e-08 W=9e-08 AD=9e-15 AS=9e-15 PD=3.8e-07 PS=3.8e-07 $X=310 $Y=144130 $D=1
M3 169 166 2 9 NMOS_VTL L=5e-08 W=9e-08 AD=1.89e-14 AS=1.2375e-14 PD=6e-07 PS=4.55e-07 $X=1045 $Y=134870 $D=1
M4 170 167 3 9 NMOS_VTL L=5e-08 W=9e-08 AD=1.89e-14 AS=1.2375e-14 PD=6e-07 PS=4.55e-07 $X=1045 $Y=139500 $D=1
M5 171 168 4 9 NMOS_VTL L=5e-08 W=9e-08 AD=1.89e-14 AS=1.2375e-14 PD=6e-07 PS=4.55e-07 $X=1045 $Y=144130 $D=1
M6 9 1 169 9 NMOS_VTL L=5e-08 W=9e-08 AD=1.2375e-14 AS=1.89e-14 PD=4.55e-07 PS=6e-07 $X=1565 $Y=134870 $D=1
M7 9 1 170 9 NMOS_VTL L=5e-08 W=9e-08 AD=1.2375e-14 AS=1.89e-14 PD=4.55e-07 PS=6e-07 $X=1565 $Y=139500 $D=1
M8 9 1 171 9 NMOS_VTL L=5e-08 W=9e-08 AD=1.2375e-14 AS=1.89e-14 PD=4.55e-07 PS=6e-07 $X=1565 $Y=144130 $D=1
M9 172 166 2 9 NMOS_VTL L=5e-08 W=9e-08 AD=1.89e-14 AS=1.2375e-14 PD=6e-07 PS=4.55e-07 $X=2375 $Y=134870 $D=1
M10 173 167 3 9 NMOS_VTL L=5e-08 W=9e-08 AD=1.89e-14 AS=1.2375e-14 PD=6e-07 PS=4.55e-07 $X=2375 $Y=139500 $D=1
M11 174 168 4 9 NMOS_VTL L=5e-08 W=9e-08 AD=1.89e-14 AS=1.2375e-14 PD=6e-07 PS=4.55e-07 $X=2375 $Y=144130 $D=1
M12 2 1 172 9 NMOS_VTL L=5e-08 W=9e-08 AD=1.2375e-14 AS=1.89e-14 PD=4.55e-07 PS=6e-07 $X=2895 $Y=134870 $D=1
M13 3 1 173 9 NMOS_VTL L=5e-08 W=9e-08 AD=1.2375e-14 AS=1.89e-14 PD=4.55e-07 PS=6e-07 $X=2895 $Y=139500 $D=1
M14 4 1 174 9 NMOS_VTL L=5e-08 W=9e-08 AD=1.2375e-14 AS=1.89e-14 PD=4.55e-07 PS=6e-07 $X=2895 $Y=144130 $D=1
M15 175 166 2 9 NMOS_VTL L=5e-08 W=9e-08 AD=1.89e-14 AS=1.2375e-14 PD=6e-07 PS=4.55e-07 $X=3705 $Y=134870 $D=1
M16 176 167 3 9 NMOS_VTL L=5e-08 W=9e-08 AD=1.89e-14 AS=1.2375e-14 PD=6e-07 PS=4.55e-07 $X=3705 $Y=139500 $D=1
M17 177 168 4 9 NMOS_VTL L=5e-08 W=9e-08 AD=1.89e-14 AS=1.2375e-14 PD=6e-07 PS=4.55e-07 $X=3705 $Y=144130 $D=1
M18 2 1 175 9 NMOS_VTL L=5e-08 W=9e-08 AD=1.2375e-14 AS=1.89e-14 PD=4.55e-07 PS=6e-07 $X=4225 $Y=134870 $D=1
M19 3 1 176 9 NMOS_VTL L=5e-08 W=9e-08 AD=1.2375e-14 AS=1.89e-14 PD=4.55e-07 PS=6e-07 $X=4225 $Y=139500 $D=1
M20 4 1 177 9 NMOS_VTL L=5e-08 W=9e-08 AD=1.2375e-14 AS=1.89e-14 PD=4.55e-07 PS=6e-07 $X=4225 $Y=144130 $D=1
M21 181 178 175 9 NMOS_VTL L=5e-08 W=9e-08 AD=1.2375e-14 AS=1.2375e-14 PD=4.55e-07 PS=4.55e-07 $X=5035 $Y=134870 $D=1
M22 182 179 176 9 NMOS_VTL L=5e-08 W=9e-08 AD=1.2375e-14 AS=1.2375e-14 PD=4.55e-07 PS=4.55e-07 $X=5035 $Y=139500 $D=1
M23 183 180 177 9 NMOS_VTL L=5e-08 W=9e-08 AD=1.2375e-14 AS=1.2375e-14 PD=4.55e-07 PS=4.55e-07 $X=5035 $Y=144130 $D=1
M24 178 5 9 9 NMOS_VTL L=5e-08 W=9e-08 AD=9e-15 AS=9e-15 PD=3.8e-07 PS=3.8e-07 $X=5770 $Y=134870 $D=1
M25 179 5 9 9 NMOS_VTL L=5e-08 W=9e-08 AD=9e-15 AS=9e-15 PD=3.8e-07 PS=3.8e-07 $X=5770 $Y=139500 $D=1
M26 180 5 9 9 NMOS_VTL L=5e-08 W=9e-08 AD=9e-15 AS=9e-15 PD=3.8e-07 PS=3.8e-07 $X=5770 $Y=144130 $D=1
M27 184 178 172 9 NMOS_VTL L=5e-08 W=9e-08 AD=1.89e-14 AS=1.2375e-14 PD=6e-07 PS=4.55e-07 $X=6505 $Y=134870 $D=1
M28 185 179 173 9 NMOS_VTL L=5e-08 W=9e-08 AD=1.89e-14 AS=1.2375e-14 PD=6e-07 PS=4.55e-07 $X=6505 $Y=139500 $D=1
M29 186 180 174 9 NMOS_VTL L=5e-08 W=9e-08 AD=1.89e-14 AS=1.2375e-14 PD=6e-07 PS=4.55e-07 $X=6505 $Y=144130 $D=1
M30 169 5 184 9 NMOS_VTL L=5e-08 W=9e-08 AD=1.2375e-14 AS=1.89e-14 PD=4.55e-07 PS=6e-07 $X=7025 $Y=134870 $D=1
M31 170 5 185 9 NMOS_VTL L=5e-08 W=9e-08 AD=1.2375e-14 AS=1.89e-14 PD=4.55e-07 PS=6e-07 $X=7025 $Y=139500 $D=1
M32 171 5 186 9 NMOS_VTL L=5e-08 W=9e-08 AD=1.2375e-14 AS=1.89e-14 PD=4.55e-07 PS=6e-07 $X=7025 $Y=144130 $D=1
M33 187 6 9 9 NMOS_VTL L=5e-08 W=9e-08 AD=9e-15 AS=9e-15 PD=3.8e-07 PS=3.8e-07 $X=7760 $Y=134870 $D=1
M34 188 6 9 9 NMOS_VTL L=5e-08 W=9e-08 AD=9e-15 AS=9e-15 PD=3.8e-07 PS=3.8e-07 $X=7760 $Y=139500 $D=1
M35 189 6 9 9 NMOS_VTL L=5e-08 W=9e-08 AD=9e-15 AS=9e-15 PD=3.8e-07 PS=3.8e-07 $X=7760 $Y=144130 $D=1
M36 190 187 184 9 NMOS_VTL L=5e-08 W=9e-08 AD=1.89e-14 AS=1.2375e-14 PD=6e-07 PS=4.55e-07 $X=8495 $Y=134870 $D=1
M37 191 188 185 9 NMOS_VTL L=5e-08 W=9e-08 AD=1.89e-14 AS=1.2375e-14 PD=6e-07 PS=4.55e-07 $X=8495 $Y=139500 $D=1
M38 192 189 186 9 NMOS_VTL L=5e-08 W=9e-08 AD=1.89e-14 AS=1.2375e-14 PD=6e-07 PS=4.55e-07 $X=8495 $Y=144130 $D=1
M39 181 6 190 9 NMOS_VTL L=5e-08 W=9e-08 AD=1.2375e-14 AS=1.89e-14 PD=4.55e-07 PS=6e-07 $X=9015 $Y=134870 $D=1
M40 182 6 191 9 NMOS_VTL L=5e-08 W=9e-08 AD=1.2375e-14 AS=1.89e-14 PD=4.55e-07 PS=6e-07 $X=9015 $Y=139500 $D=1
M41 183 6 192 9 NMOS_VTL L=5e-08 W=9e-08 AD=1.2375e-14 AS=1.89e-14 PD=4.55e-07 PS=6e-07 $X=9015 $Y=144130 $D=1
M42 193 8 9 9 NMOS_VTL L=5e-08 W=9e-08 AD=9e-15 AS=9e-15 PD=3.8e-07 PS=3.8e-07 $X=9750 $Y=134870 $D=1
M43 194 8 9 9 NMOS_VTL L=5e-08 W=9e-08 AD=9e-15 AS=9e-15 PD=3.8e-07 PS=3.8e-07 $X=9750 $Y=139500 $D=1
M44 195 8 9 9 NMOS_VTL L=5e-08 W=9e-08 AD=9e-15 AS=9e-15 PD=3.8e-07 PS=3.8e-07 $X=9750 $Y=144130 $D=1
M45 196 193 9 9 NMOS_VTL L=5e-08 W=9e-08 AD=1.89e-14 AS=1.2375e-14 PD=6e-07 PS=4.55e-07 $X=10485 $Y=134870 $D=1
M46 197 194 9 9 NMOS_VTL L=5e-08 W=9e-08 AD=1.89e-14 AS=1.2375e-14 PD=6e-07 PS=4.55e-07 $X=10485 $Y=139500 $D=1
M47 198 195 10 9 NMOS_VTL L=5e-08 W=9e-08 AD=1.89e-14 AS=1.2375e-14 PD=6e-07 PS=4.55e-07 $X=10485 $Y=144130 $D=1
M48 11 8 196 9 NMOS_VTL L=5e-08 W=9e-08 AD=1.2375e-14 AS=1.89e-14 PD=4.55e-07 PS=6e-07 $X=11005 $Y=134870 $D=1
M49 12 8 197 9 NMOS_VTL L=5e-08 W=9e-08 AD=1.2375e-14 AS=1.89e-14 PD=4.55e-07 PS=6e-07 $X=11005 $Y=139500 $D=1
M50 13 8 198 9 NMOS_VTL L=5e-08 W=9e-08 AD=1.2375e-14 AS=1.89e-14 PD=4.55e-07 PS=6e-07 $X=11005 $Y=144130 $D=1
M51 199 193 14 9 NMOS_VTL L=5e-08 W=9e-08 AD=1.89e-14 AS=1.2375e-14 PD=6e-07 PS=4.55e-07 $X=11815 $Y=134870 $D=1
M52 200 194 15 9 NMOS_VTL L=5e-08 W=9e-08 AD=1.89e-14 AS=1.2375e-14 PD=6e-07 PS=4.55e-07 $X=11815 $Y=139500 $D=1
M53 201 195 16 9 NMOS_VTL L=5e-08 W=9e-08 AD=1.89e-14 AS=1.2375e-14 PD=6e-07 PS=4.55e-07 $X=11815 $Y=144130 $D=1
M54 202 8 199 9 NMOS_VTL L=5e-08 W=9e-08 AD=1.2375e-14 AS=1.89e-14 PD=4.55e-07 PS=6e-07 $X=12335 $Y=134870 $D=1
M55 203 8 200 9 NMOS_VTL L=5e-08 W=9e-08 AD=1.2375e-14 AS=1.89e-14 PD=4.55e-07 PS=6e-07 $X=12335 $Y=139500 $D=1
M56 204 8 201 9 NMOS_VTL L=5e-08 W=9e-08 AD=1.2375e-14 AS=1.89e-14 PD=4.55e-07 PS=6e-07 $X=12335 $Y=144130 $D=1
M57 208 193 205 9 NMOS_VTL L=5e-08 W=9e-08 AD=1.89e-14 AS=1.2375e-14 PD=6e-07 PS=4.55e-07 $X=13145 $Y=134870 $D=1
M58 209 194 206 9 NMOS_VTL L=5e-08 W=9e-08 AD=1.89e-14 AS=1.2375e-14 PD=6e-07 PS=4.55e-07 $X=13145 $Y=139500 $D=1
M59 210 195 207 9 NMOS_VTL L=5e-08 W=9e-08 AD=1.89e-14 AS=1.2375e-14 PD=6e-07 PS=4.55e-07 $X=13145 $Y=144130 $D=1
M60 190 8 208 9 NMOS_VTL L=5e-08 W=9e-08 AD=1.2375e-14 AS=1.89e-14 PD=4.55e-07 PS=6e-07 $X=13665 $Y=134870 $D=1
M61 191 8 209 9 NMOS_VTL L=5e-08 W=9e-08 AD=1.2375e-14 AS=1.89e-14 PD=4.55e-07 PS=6e-07 $X=13665 $Y=139500 $D=1
M62 192 8 210 9 NMOS_VTL L=5e-08 W=9e-08 AD=1.2375e-14 AS=1.89e-14 PD=4.55e-07 PS=6e-07 $X=13665 $Y=144130 $D=1
M63 214 211 208 9 NMOS_VTL L=5e-08 W=9e-08 AD=1.2375e-14 AS=1.2375e-14 PD=4.55e-07 PS=4.55e-07 $X=14475 $Y=134870 $D=1
M64 215 212 209 9 NMOS_VTL L=5e-08 W=9e-08 AD=1.2375e-14 AS=1.2375e-14 PD=4.55e-07 PS=4.55e-07 $X=14475 $Y=139500 $D=1
M65 216 213 210 9 NMOS_VTL L=5e-08 W=9e-08 AD=1.2375e-14 AS=1.2375e-14 PD=4.55e-07 PS=4.55e-07 $X=14475 $Y=144130 $D=1
M66 211 17 9 9 NMOS_VTL L=5e-08 W=9e-08 AD=9e-15 AS=9e-15 PD=3.8e-07 PS=3.8e-07 $X=15210 $Y=134870 $D=1
M67 212 17 9 9 NMOS_VTL L=5e-08 W=9e-08 AD=9e-15 AS=9e-15 PD=3.8e-07 PS=3.8e-07 $X=15210 $Y=139500 $D=1
M68 213 17 9 9 NMOS_VTL L=5e-08 W=9e-08 AD=9e-15 AS=9e-15 PD=3.8e-07 PS=3.8e-07 $X=15210 $Y=144130 $D=1
M69 217 211 199 9 NMOS_VTL L=5e-08 W=9e-08 AD=1.89e-14 AS=1.2375e-14 PD=6e-07 PS=4.55e-07 $X=15945 $Y=134870 $D=1
M70 218 212 200 9 NMOS_VTL L=5e-08 W=9e-08 AD=1.89e-14 AS=1.2375e-14 PD=6e-07 PS=4.55e-07 $X=15945 $Y=139500 $D=1
M71 219 213 201 9 NMOS_VTL L=5e-08 W=9e-08 AD=1.89e-14 AS=1.2375e-14 PD=6e-07 PS=4.55e-07 $X=15945 $Y=144130 $D=1
M72 196 17 217 9 NMOS_VTL L=5e-08 W=9e-08 AD=1.2375e-14 AS=1.89e-14 PD=4.55e-07 PS=6e-07 $X=16465 $Y=134870 $D=1
M73 197 17 218 9 NMOS_VTL L=5e-08 W=9e-08 AD=1.2375e-14 AS=1.89e-14 PD=4.55e-07 PS=6e-07 $X=16465 $Y=139500 $D=1
M74 198 17 219 9 NMOS_VTL L=5e-08 W=9e-08 AD=1.2375e-14 AS=1.89e-14 PD=4.55e-07 PS=6e-07 $X=16465 $Y=144130 $D=1
M75 220 18 9 9 NMOS_VTL L=5e-08 W=9e-08 AD=9e-15 AS=9e-15 PD=3.8e-07 PS=3.8e-07 $X=17200 $Y=134870 $D=1
M76 221 18 9 9 NMOS_VTL L=5e-08 W=9e-08 AD=9e-15 AS=9e-15 PD=3.8e-07 PS=3.8e-07 $X=17200 $Y=139500 $D=1
M77 222 18 9 9 NMOS_VTL L=5e-08 W=9e-08 AD=9e-15 AS=9e-15 PD=3.8e-07 PS=3.8e-07 $X=17200 $Y=144130 $D=1
M78 223 220 217 9 NMOS_VTL L=5e-08 W=9e-08 AD=1.89e-14 AS=1.2375e-14 PD=6e-07 PS=4.55e-07 $X=17935 $Y=134870 $D=1
M79 224 221 218 9 NMOS_VTL L=5e-08 W=9e-08 AD=1.89e-14 AS=1.2375e-14 PD=6e-07 PS=4.55e-07 $X=17935 $Y=139500 $D=1
M80 225 222 219 9 NMOS_VTL L=5e-08 W=9e-08 AD=1.89e-14 AS=1.2375e-14 PD=6e-07 PS=4.55e-07 $X=17935 $Y=144130 $D=1
M81 214 18 223 9 NMOS_VTL L=5e-08 W=9e-08 AD=1.2375e-14 AS=1.89e-14 PD=4.55e-07 PS=6e-07 $X=18455 $Y=134870 $D=1
M82 215 18 224 9 NMOS_VTL L=5e-08 W=9e-08 AD=1.2375e-14 AS=1.89e-14 PD=4.55e-07 PS=6e-07 $X=18455 $Y=139500 $D=1
M83 216 18 225 9 NMOS_VTL L=5e-08 W=9e-08 AD=1.2375e-14 AS=1.89e-14 PD=4.55e-07 PS=6e-07 $X=18455 $Y=144130 $D=1
M84 9 19 226 9 NMOS_VTL L=5e-08 W=9e-08 AD=1.26e-14 AS=9e-15 PD=4.6e-07 PS=3.8e-07 $X=19190 $Y=134870 $D=1
M85 9 19 227 9 NMOS_VTL L=5e-08 W=9e-08 AD=1.26e-14 AS=9e-15 PD=4.6e-07 PS=3.8e-07 $X=19190 $Y=139500 $D=1
M86 9 19 228 9 NMOS_VTL L=5e-08 W=9e-08 AD=1.26e-14 AS=9e-15 PD=4.6e-07 PS=3.8e-07 $X=19190 $Y=144130 $D=1
M87 229 20 9 9 NMOS_VTL L=5e-08 W=9e-08 AD=9e-15 AS=1.26e-14 PD=3.8e-07 PS=4.6e-07 $X=19570 $Y=134870 $D=1
M88 230 20 9 9 NMOS_VTL L=5e-08 W=9e-08 AD=9e-15 AS=1.26e-14 PD=3.8e-07 PS=4.6e-07 $X=19570 $Y=139500 $D=1
M89 231 20 9 9 NMOS_VTL L=5e-08 W=9e-08 AD=9e-15 AS=1.26e-14 PD=3.8e-07 PS=4.6e-07 $X=19570 $Y=144130 $D=1
M90 232 19 223 9 NMOS_VTL L=5e-08 W=9e-08 AD=1.2375e-14 AS=1.2375e-14 PD=4.55e-07 PS=4.55e-07 $X=20305 $Y=134870 $D=1
M91 233 19 224 9 NMOS_VTL L=5e-08 W=9e-08 AD=1.2375e-14 AS=1.2375e-14 PD=4.55e-07 PS=4.55e-07 $X=20305 $Y=139500 $D=1
M92 234 19 225 9 NMOS_VTL L=5e-08 W=9e-08 AD=1.2375e-14 AS=1.2375e-14 PD=4.55e-07 PS=4.55e-07 $X=20305 $Y=144130 $D=1
M93 9 232 939 9 NMOS_VTL L=5e-08 W=9e-08 AD=1.26e-14 AS=9e-15 PD=4.6e-07 PS=3.8e-07 $X=21040 $Y=134870 $D=1
M94 9 233 940 9 NMOS_VTL L=5e-08 W=9e-08 AD=1.26e-14 AS=9e-15 PD=4.6e-07 PS=3.8e-07 $X=21040 $Y=139500 $D=1
M95 9 234 941 9 NMOS_VTL L=5e-08 W=9e-08 AD=1.26e-14 AS=9e-15 PD=4.6e-07 PS=3.8e-07 $X=21040 $Y=144130 $D=1
M96 235 939 9 9 NMOS_VTL L=5e-08 W=9e-08 AD=1.5525e-14 AS=1.26e-14 PD=5.25e-07 PS=4.6e-07 $X=21420 $Y=134870 $D=1
M97 236 940 9 9 NMOS_VTL L=5e-08 W=9e-08 AD=1.5525e-14 AS=1.26e-14 PD=5.25e-07 PS=4.6e-07 $X=21420 $Y=139500 $D=1
M98 237 941 9 9 NMOS_VTL L=5e-08 W=9e-08 AD=1.5525e-14 AS=1.26e-14 PD=5.25e-07 PS=4.6e-07 $X=21420 $Y=144130 $D=1
M99 232 226 235 9 NMOS_VTL L=5e-08 W=9e-08 AD=1.2375e-14 AS=1.5525e-14 PD=4.55e-07 PS=5.25e-07 $X=21865 $Y=134870 $D=1
M100 233 227 236 9 NMOS_VTL L=5e-08 W=9e-08 AD=1.2375e-14 AS=1.5525e-14 PD=4.55e-07 PS=5.25e-07 $X=21865 $Y=139500 $D=1
M101 234 228 237 9 NMOS_VTL L=5e-08 W=9e-08 AD=1.2375e-14 AS=1.5525e-14 PD=4.55e-07 PS=5.25e-07 $X=21865 $Y=144130 $D=1
M102 235 20 238 9 NMOS_VTL L=5e-08 W=9e-08 AD=1.89e-14 AS=1.2375e-14 PD=6e-07 PS=4.55e-07 $X=22675 $Y=134870 $D=1
M103 236 20 239 9 NMOS_VTL L=5e-08 W=9e-08 AD=1.89e-14 AS=1.2375e-14 PD=6e-07 PS=4.55e-07 $X=22675 $Y=139500 $D=1
M104 237 20 240 9 NMOS_VTL L=5e-08 W=9e-08 AD=1.89e-14 AS=1.2375e-14 PD=6e-07 PS=4.55e-07 $X=22675 $Y=144130 $D=1
M105 244 21 235 9 NMOS_VTL L=5e-08 W=9e-08 AD=1.2375e-14 AS=1.89e-14 PD=4.55e-07 PS=6e-07 $X=23195 $Y=134870 $D=1
M106 245 21 236 9 NMOS_VTL L=5e-08 W=9e-08 AD=1.2375e-14 AS=1.89e-14 PD=4.55e-07 PS=6e-07 $X=23195 $Y=139500 $D=1
M107 246 21 237 9 NMOS_VTL L=5e-08 W=9e-08 AD=1.2375e-14 AS=1.89e-14 PD=4.55e-07 PS=6e-07 $X=23195 $Y=144130 $D=1
M108 241 21 9 9 NMOS_VTL L=5e-08 W=9e-08 AD=9e-15 AS=9e-15 PD=3.8e-07 PS=3.8e-07 $X=23930 $Y=134870 $D=1
M109 242 21 9 9 NMOS_VTL L=5e-08 W=9e-08 AD=9e-15 AS=9e-15 PD=3.8e-07 PS=3.8e-07 $X=23930 $Y=139500 $D=1
M110 243 21 9 9 NMOS_VTL L=5e-08 W=9e-08 AD=9e-15 AS=9e-15 PD=3.8e-07 PS=3.8e-07 $X=23930 $Y=144130 $D=1
M111 9 22 247 9 NMOS_VTL L=5e-08 W=9e-08 AD=1.26e-14 AS=9e-15 PD=4.6e-07 PS=3.8e-07 $X=24590 $Y=134870 $D=1
M112 9 22 248 9 NMOS_VTL L=5e-08 W=9e-08 AD=1.26e-14 AS=9e-15 PD=4.6e-07 PS=3.8e-07 $X=24590 $Y=139500 $D=1
M113 9 22 249 9 NMOS_VTL L=5e-08 W=9e-08 AD=1.26e-14 AS=9e-15 PD=4.6e-07 PS=3.8e-07 $X=24590 $Y=144130 $D=1
M114 250 23 9 9 NMOS_VTL L=5e-08 W=9e-08 AD=9e-15 AS=1.26e-14 PD=3.8e-07 PS=4.6e-07 $X=24970 $Y=134870 $D=1
M115 251 23 9 9 NMOS_VTL L=5e-08 W=9e-08 AD=9e-15 AS=1.26e-14 PD=3.8e-07 PS=4.6e-07 $X=24970 $Y=139500 $D=1
M116 252 23 9 9 NMOS_VTL L=5e-08 W=9e-08 AD=9e-15 AS=1.26e-14 PD=3.8e-07 PS=4.6e-07 $X=24970 $Y=144130 $D=1
M117 253 22 223 9 NMOS_VTL L=5e-08 W=9e-08 AD=1.2375e-14 AS=1.2375e-14 PD=4.55e-07 PS=4.55e-07 $X=25705 $Y=134870 $D=1
M118 254 22 224 9 NMOS_VTL L=5e-08 W=9e-08 AD=1.2375e-14 AS=1.2375e-14 PD=4.55e-07 PS=4.55e-07 $X=25705 $Y=139500 $D=1
M119 255 22 225 9 NMOS_VTL L=5e-08 W=9e-08 AD=1.2375e-14 AS=1.2375e-14 PD=4.55e-07 PS=4.55e-07 $X=25705 $Y=144130 $D=1
M120 9 253 942 9 NMOS_VTL L=5e-08 W=9e-08 AD=1.26e-14 AS=9e-15 PD=4.6e-07 PS=3.8e-07 $X=26440 $Y=134870 $D=1
M121 9 254 943 9 NMOS_VTL L=5e-08 W=9e-08 AD=1.26e-14 AS=9e-15 PD=4.6e-07 PS=3.8e-07 $X=26440 $Y=139500 $D=1
M122 9 255 944 9 NMOS_VTL L=5e-08 W=9e-08 AD=1.26e-14 AS=9e-15 PD=4.6e-07 PS=3.8e-07 $X=26440 $Y=144130 $D=1
M123 256 942 9 9 NMOS_VTL L=5e-08 W=9e-08 AD=1.5525e-14 AS=1.26e-14 PD=5.25e-07 PS=4.6e-07 $X=26820 $Y=134870 $D=1
M124 257 943 9 9 NMOS_VTL L=5e-08 W=9e-08 AD=1.5525e-14 AS=1.26e-14 PD=5.25e-07 PS=4.6e-07 $X=26820 $Y=139500 $D=1
M125 258 944 9 9 NMOS_VTL L=5e-08 W=9e-08 AD=1.5525e-14 AS=1.26e-14 PD=5.25e-07 PS=4.6e-07 $X=26820 $Y=144130 $D=1
M126 253 247 256 9 NMOS_VTL L=5e-08 W=9e-08 AD=1.2375e-14 AS=1.5525e-14 PD=4.55e-07 PS=5.25e-07 $X=27265 $Y=134870 $D=1
M127 254 248 257 9 NMOS_VTL L=5e-08 W=9e-08 AD=1.2375e-14 AS=1.5525e-14 PD=4.55e-07 PS=5.25e-07 $X=27265 $Y=139500 $D=1
M128 255 249 258 9 NMOS_VTL L=5e-08 W=9e-08 AD=1.2375e-14 AS=1.5525e-14 PD=4.55e-07 PS=5.25e-07 $X=27265 $Y=144130 $D=1
M129 256 23 238 9 NMOS_VTL L=5e-08 W=9e-08 AD=1.89e-14 AS=1.2375e-14 PD=6e-07 PS=4.55e-07 $X=28075 $Y=134870 $D=1
M130 257 23 239 9 NMOS_VTL L=5e-08 W=9e-08 AD=1.89e-14 AS=1.2375e-14 PD=6e-07 PS=4.55e-07 $X=28075 $Y=139500 $D=1
M131 258 23 240 9 NMOS_VTL L=5e-08 W=9e-08 AD=1.89e-14 AS=1.2375e-14 PD=6e-07 PS=4.55e-07 $X=28075 $Y=144130 $D=1
M132 244 24 256 9 NMOS_VTL L=5e-08 W=9e-08 AD=1.2375e-14 AS=1.89e-14 PD=4.55e-07 PS=6e-07 $X=28595 $Y=134870 $D=1
M133 245 24 257 9 NMOS_VTL L=5e-08 W=9e-08 AD=1.2375e-14 AS=1.89e-14 PD=4.55e-07 PS=6e-07 $X=28595 $Y=139500 $D=1
M134 246 24 258 9 NMOS_VTL L=5e-08 W=9e-08 AD=1.2375e-14 AS=1.89e-14 PD=4.55e-07 PS=6e-07 $X=28595 $Y=144130 $D=1
M135 259 24 9 9 NMOS_VTL L=5e-08 W=9e-08 AD=9e-15 AS=9e-15 PD=3.8e-07 PS=3.8e-07 $X=29330 $Y=134870 $D=1
M136 260 24 9 9 NMOS_VTL L=5e-08 W=9e-08 AD=9e-15 AS=9e-15 PD=3.8e-07 PS=3.8e-07 $X=29330 $Y=139500 $D=1
M137 261 24 9 9 NMOS_VTL L=5e-08 W=9e-08 AD=9e-15 AS=9e-15 PD=3.8e-07 PS=3.8e-07 $X=29330 $Y=144130 $D=1
M138 9 25 262 9 NMOS_VTL L=5e-08 W=9e-08 AD=1.26e-14 AS=9e-15 PD=4.6e-07 PS=3.8e-07 $X=29990 $Y=134870 $D=1
M139 9 25 263 9 NMOS_VTL L=5e-08 W=9e-08 AD=1.26e-14 AS=9e-15 PD=4.6e-07 PS=3.8e-07 $X=29990 $Y=139500 $D=1
M140 9 25 264 9 NMOS_VTL L=5e-08 W=9e-08 AD=1.26e-14 AS=9e-15 PD=4.6e-07 PS=3.8e-07 $X=29990 $Y=144130 $D=1
M141 265 26 9 9 NMOS_VTL L=5e-08 W=9e-08 AD=9e-15 AS=1.26e-14 PD=3.8e-07 PS=4.6e-07 $X=30370 $Y=134870 $D=1
M142 266 26 9 9 NMOS_VTL L=5e-08 W=9e-08 AD=9e-15 AS=1.26e-14 PD=3.8e-07 PS=4.6e-07 $X=30370 $Y=139500 $D=1
M143 267 26 9 9 NMOS_VTL L=5e-08 W=9e-08 AD=9e-15 AS=1.26e-14 PD=3.8e-07 PS=4.6e-07 $X=30370 $Y=144130 $D=1
M144 268 25 223 9 NMOS_VTL L=5e-08 W=9e-08 AD=1.2375e-14 AS=1.2375e-14 PD=4.55e-07 PS=4.55e-07 $X=31105 $Y=134870 $D=1
M145 269 25 224 9 NMOS_VTL L=5e-08 W=9e-08 AD=1.2375e-14 AS=1.2375e-14 PD=4.55e-07 PS=4.55e-07 $X=31105 $Y=139500 $D=1
M146 270 25 225 9 NMOS_VTL L=5e-08 W=9e-08 AD=1.2375e-14 AS=1.2375e-14 PD=4.55e-07 PS=4.55e-07 $X=31105 $Y=144130 $D=1
M147 9 268 945 9 NMOS_VTL L=5e-08 W=9e-08 AD=1.26e-14 AS=9e-15 PD=4.6e-07 PS=3.8e-07 $X=31840 $Y=134870 $D=1
M148 9 269 946 9 NMOS_VTL L=5e-08 W=9e-08 AD=1.26e-14 AS=9e-15 PD=4.6e-07 PS=3.8e-07 $X=31840 $Y=139500 $D=1
M149 9 270 947 9 NMOS_VTL L=5e-08 W=9e-08 AD=1.26e-14 AS=9e-15 PD=4.6e-07 PS=3.8e-07 $X=31840 $Y=144130 $D=1
M150 271 945 9 9 NMOS_VTL L=5e-08 W=9e-08 AD=1.5525e-14 AS=1.26e-14 PD=5.25e-07 PS=4.6e-07 $X=32220 $Y=134870 $D=1
M151 272 946 9 9 NMOS_VTL L=5e-08 W=9e-08 AD=1.5525e-14 AS=1.26e-14 PD=5.25e-07 PS=4.6e-07 $X=32220 $Y=139500 $D=1
M152 273 947 9 9 NMOS_VTL L=5e-08 W=9e-08 AD=1.5525e-14 AS=1.26e-14 PD=5.25e-07 PS=4.6e-07 $X=32220 $Y=144130 $D=1
M153 268 262 271 9 NMOS_VTL L=5e-08 W=9e-08 AD=1.2375e-14 AS=1.5525e-14 PD=4.55e-07 PS=5.25e-07 $X=32665 $Y=134870 $D=1
M154 269 263 272 9 NMOS_VTL L=5e-08 W=9e-08 AD=1.2375e-14 AS=1.5525e-14 PD=4.55e-07 PS=5.25e-07 $X=32665 $Y=139500 $D=1
M155 270 264 273 9 NMOS_VTL L=5e-08 W=9e-08 AD=1.2375e-14 AS=1.5525e-14 PD=4.55e-07 PS=5.25e-07 $X=32665 $Y=144130 $D=1
M156 271 26 238 9 NMOS_VTL L=5e-08 W=9e-08 AD=1.89e-14 AS=1.2375e-14 PD=6e-07 PS=4.55e-07 $X=33475 $Y=134870 $D=1
M157 272 26 239 9 NMOS_VTL L=5e-08 W=9e-08 AD=1.89e-14 AS=1.2375e-14 PD=6e-07 PS=4.55e-07 $X=33475 $Y=139500 $D=1
M158 273 26 240 9 NMOS_VTL L=5e-08 W=9e-08 AD=1.89e-14 AS=1.2375e-14 PD=6e-07 PS=4.55e-07 $X=33475 $Y=144130 $D=1
M159 244 27 271 9 NMOS_VTL L=5e-08 W=9e-08 AD=1.2375e-14 AS=1.89e-14 PD=4.55e-07 PS=6e-07 $X=33995 $Y=134870 $D=1
M160 245 27 272 9 NMOS_VTL L=5e-08 W=9e-08 AD=1.2375e-14 AS=1.89e-14 PD=4.55e-07 PS=6e-07 $X=33995 $Y=139500 $D=1
M161 246 27 273 9 NMOS_VTL L=5e-08 W=9e-08 AD=1.2375e-14 AS=1.89e-14 PD=4.55e-07 PS=6e-07 $X=33995 $Y=144130 $D=1
M162 274 27 9 9 NMOS_VTL L=5e-08 W=9e-08 AD=9e-15 AS=9e-15 PD=3.8e-07 PS=3.8e-07 $X=34730 $Y=134870 $D=1
M163 275 27 9 9 NMOS_VTL L=5e-08 W=9e-08 AD=9e-15 AS=9e-15 PD=3.8e-07 PS=3.8e-07 $X=34730 $Y=139500 $D=1
M164 276 27 9 9 NMOS_VTL L=5e-08 W=9e-08 AD=9e-15 AS=9e-15 PD=3.8e-07 PS=3.8e-07 $X=34730 $Y=144130 $D=1
M165 9 28 277 9 NMOS_VTL L=5e-08 W=9e-08 AD=1.26e-14 AS=9e-15 PD=4.6e-07 PS=3.8e-07 $X=35390 $Y=134870 $D=1
M166 9 28 278 9 NMOS_VTL L=5e-08 W=9e-08 AD=1.26e-14 AS=9e-15 PD=4.6e-07 PS=3.8e-07 $X=35390 $Y=139500 $D=1
M167 9 28 279 9 NMOS_VTL L=5e-08 W=9e-08 AD=1.26e-14 AS=9e-15 PD=4.6e-07 PS=3.8e-07 $X=35390 $Y=144130 $D=1
M168 280 29 9 9 NMOS_VTL L=5e-08 W=9e-08 AD=9e-15 AS=1.26e-14 PD=3.8e-07 PS=4.6e-07 $X=35770 $Y=134870 $D=1
M169 281 29 9 9 NMOS_VTL L=5e-08 W=9e-08 AD=9e-15 AS=1.26e-14 PD=3.8e-07 PS=4.6e-07 $X=35770 $Y=139500 $D=1
M170 282 29 9 9 NMOS_VTL L=5e-08 W=9e-08 AD=9e-15 AS=1.26e-14 PD=3.8e-07 PS=4.6e-07 $X=35770 $Y=144130 $D=1
M171 283 28 223 9 NMOS_VTL L=5e-08 W=9e-08 AD=1.2375e-14 AS=1.2375e-14 PD=4.55e-07 PS=4.55e-07 $X=36505 $Y=134870 $D=1
M172 284 28 224 9 NMOS_VTL L=5e-08 W=9e-08 AD=1.2375e-14 AS=1.2375e-14 PD=4.55e-07 PS=4.55e-07 $X=36505 $Y=139500 $D=1
M173 285 28 225 9 NMOS_VTL L=5e-08 W=9e-08 AD=1.2375e-14 AS=1.2375e-14 PD=4.55e-07 PS=4.55e-07 $X=36505 $Y=144130 $D=1
M174 9 283 948 9 NMOS_VTL L=5e-08 W=9e-08 AD=1.26e-14 AS=9e-15 PD=4.6e-07 PS=3.8e-07 $X=37240 $Y=134870 $D=1
M175 9 284 949 9 NMOS_VTL L=5e-08 W=9e-08 AD=1.26e-14 AS=9e-15 PD=4.6e-07 PS=3.8e-07 $X=37240 $Y=139500 $D=1
M176 9 285 950 9 NMOS_VTL L=5e-08 W=9e-08 AD=1.26e-14 AS=9e-15 PD=4.6e-07 PS=3.8e-07 $X=37240 $Y=144130 $D=1
M177 286 948 9 9 NMOS_VTL L=5e-08 W=9e-08 AD=1.5525e-14 AS=1.26e-14 PD=5.25e-07 PS=4.6e-07 $X=37620 $Y=134870 $D=1
M178 287 949 9 9 NMOS_VTL L=5e-08 W=9e-08 AD=1.5525e-14 AS=1.26e-14 PD=5.25e-07 PS=4.6e-07 $X=37620 $Y=139500 $D=1
M179 288 950 9 9 NMOS_VTL L=5e-08 W=9e-08 AD=1.5525e-14 AS=1.26e-14 PD=5.25e-07 PS=4.6e-07 $X=37620 $Y=144130 $D=1
M180 283 277 286 9 NMOS_VTL L=5e-08 W=9e-08 AD=1.2375e-14 AS=1.5525e-14 PD=4.55e-07 PS=5.25e-07 $X=38065 $Y=134870 $D=1
M181 284 278 287 9 NMOS_VTL L=5e-08 W=9e-08 AD=1.2375e-14 AS=1.5525e-14 PD=4.55e-07 PS=5.25e-07 $X=38065 $Y=139500 $D=1
M182 285 279 288 9 NMOS_VTL L=5e-08 W=9e-08 AD=1.2375e-14 AS=1.5525e-14 PD=4.55e-07 PS=5.25e-07 $X=38065 $Y=144130 $D=1
M183 286 29 238 9 NMOS_VTL L=5e-08 W=9e-08 AD=1.89e-14 AS=1.2375e-14 PD=6e-07 PS=4.55e-07 $X=38875 $Y=134870 $D=1
M184 287 29 239 9 NMOS_VTL L=5e-08 W=9e-08 AD=1.89e-14 AS=1.2375e-14 PD=6e-07 PS=4.55e-07 $X=38875 $Y=139500 $D=1
M185 288 29 240 9 NMOS_VTL L=5e-08 W=9e-08 AD=1.89e-14 AS=1.2375e-14 PD=6e-07 PS=4.55e-07 $X=38875 $Y=144130 $D=1
M186 244 30 286 9 NMOS_VTL L=5e-08 W=9e-08 AD=1.2375e-14 AS=1.89e-14 PD=4.55e-07 PS=6e-07 $X=39395 $Y=134870 $D=1
M187 245 30 287 9 NMOS_VTL L=5e-08 W=9e-08 AD=1.2375e-14 AS=1.89e-14 PD=4.55e-07 PS=6e-07 $X=39395 $Y=139500 $D=1
M188 246 30 288 9 NMOS_VTL L=5e-08 W=9e-08 AD=1.2375e-14 AS=1.89e-14 PD=4.55e-07 PS=6e-07 $X=39395 $Y=144130 $D=1
M189 289 30 9 9 NMOS_VTL L=5e-08 W=9e-08 AD=9e-15 AS=9e-15 PD=3.8e-07 PS=3.8e-07 $X=40130 $Y=134870 $D=1
M190 290 30 9 9 NMOS_VTL L=5e-08 W=9e-08 AD=9e-15 AS=9e-15 PD=3.8e-07 PS=3.8e-07 $X=40130 $Y=139500 $D=1
M191 291 30 9 9 NMOS_VTL L=5e-08 W=9e-08 AD=9e-15 AS=9e-15 PD=3.8e-07 PS=3.8e-07 $X=40130 $Y=144130 $D=1
M192 9 31 292 9 NMOS_VTL L=5e-08 W=9e-08 AD=1.26e-14 AS=9e-15 PD=4.6e-07 PS=3.8e-07 $X=40790 $Y=134870 $D=1
M193 9 31 293 9 NMOS_VTL L=5e-08 W=9e-08 AD=1.26e-14 AS=9e-15 PD=4.6e-07 PS=3.8e-07 $X=40790 $Y=139500 $D=1
M194 9 31 294 9 NMOS_VTL L=5e-08 W=9e-08 AD=1.26e-14 AS=9e-15 PD=4.6e-07 PS=3.8e-07 $X=40790 $Y=144130 $D=1
M195 295 32 9 9 NMOS_VTL L=5e-08 W=9e-08 AD=9e-15 AS=1.26e-14 PD=3.8e-07 PS=4.6e-07 $X=41170 $Y=134870 $D=1
M196 296 32 9 9 NMOS_VTL L=5e-08 W=9e-08 AD=9e-15 AS=1.26e-14 PD=3.8e-07 PS=4.6e-07 $X=41170 $Y=139500 $D=1
M197 297 32 9 9 NMOS_VTL L=5e-08 W=9e-08 AD=9e-15 AS=1.26e-14 PD=3.8e-07 PS=4.6e-07 $X=41170 $Y=144130 $D=1
M198 298 31 223 9 NMOS_VTL L=5e-08 W=9e-08 AD=1.2375e-14 AS=1.2375e-14 PD=4.55e-07 PS=4.55e-07 $X=41905 $Y=134870 $D=1
M199 299 31 224 9 NMOS_VTL L=5e-08 W=9e-08 AD=1.2375e-14 AS=1.2375e-14 PD=4.55e-07 PS=4.55e-07 $X=41905 $Y=139500 $D=1
M200 300 31 225 9 NMOS_VTL L=5e-08 W=9e-08 AD=1.2375e-14 AS=1.2375e-14 PD=4.55e-07 PS=4.55e-07 $X=41905 $Y=144130 $D=1
M201 9 298 951 9 NMOS_VTL L=5e-08 W=9e-08 AD=1.26e-14 AS=9e-15 PD=4.6e-07 PS=3.8e-07 $X=42640 $Y=134870 $D=1
M202 9 299 952 9 NMOS_VTL L=5e-08 W=9e-08 AD=1.26e-14 AS=9e-15 PD=4.6e-07 PS=3.8e-07 $X=42640 $Y=139500 $D=1
M203 9 300 953 9 NMOS_VTL L=5e-08 W=9e-08 AD=1.26e-14 AS=9e-15 PD=4.6e-07 PS=3.8e-07 $X=42640 $Y=144130 $D=1
M204 301 951 9 9 NMOS_VTL L=5e-08 W=9e-08 AD=1.5525e-14 AS=1.26e-14 PD=5.25e-07 PS=4.6e-07 $X=43020 $Y=134870 $D=1
M205 302 952 9 9 NMOS_VTL L=5e-08 W=9e-08 AD=1.5525e-14 AS=1.26e-14 PD=5.25e-07 PS=4.6e-07 $X=43020 $Y=139500 $D=1
M206 303 953 9 9 NMOS_VTL L=5e-08 W=9e-08 AD=1.5525e-14 AS=1.26e-14 PD=5.25e-07 PS=4.6e-07 $X=43020 $Y=144130 $D=1
M207 298 292 301 9 NMOS_VTL L=5e-08 W=9e-08 AD=1.2375e-14 AS=1.5525e-14 PD=4.55e-07 PS=5.25e-07 $X=43465 $Y=134870 $D=1
M208 299 293 302 9 NMOS_VTL L=5e-08 W=9e-08 AD=1.2375e-14 AS=1.5525e-14 PD=4.55e-07 PS=5.25e-07 $X=43465 $Y=139500 $D=1
M209 300 294 303 9 NMOS_VTL L=5e-08 W=9e-08 AD=1.2375e-14 AS=1.5525e-14 PD=4.55e-07 PS=5.25e-07 $X=43465 $Y=144130 $D=1
M210 301 32 238 9 NMOS_VTL L=5e-08 W=9e-08 AD=1.89e-14 AS=1.2375e-14 PD=6e-07 PS=4.55e-07 $X=44275 $Y=134870 $D=1
M211 302 32 239 9 NMOS_VTL L=5e-08 W=9e-08 AD=1.89e-14 AS=1.2375e-14 PD=6e-07 PS=4.55e-07 $X=44275 $Y=139500 $D=1
M212 303 32 240 9 NMOS_VTL L=5e-08 W=9e-08 AD=1.89e-14 AS=1.2375e-14 PD=6e-07 PS=4.55e-07 $X=44275 $Y=144130 $D=1
M213 244 33 301 9 NMOS_VTL L=5e-08 W=9e-08 AD=1.2375e-14 AS=1.89e-14 PD=4.55e-07 PS=6e-07 $X=44795 $Y=134870 $D=1
M214 245 33 302 9 NMOS_VTL L=5e-08 W=9e-08 AD=1.2375e-14 AS=1.89e-14 PD=4.55e-07 PS=6e-07 $X=44795 $Y=139500 $D=1
M215 246 33 303 9 NMOS_VTL L=5e-08 W=9e-08 AD=1.2375e-14 AS=1.89e-14 PD=4.55e-07 PS=6e-07 $X=44795 $Y=144130 $D=1
M216 304 33 9 9 NMOS_VTL L=5e-08 W=9e-08 AD=9e-15 AS=9e-15 PD=3.8e-07 PS=3.8e-07 $X=45530 $Y=134870 $D=1
M217 305 33 9 9 NMOS_VTL L=5e-08 W=9e-08 AD=9e-15 AS=9e-15 PD=3.8e-07 PS=3.8e-07 $X=45530 $Y=139500 $D=1
M218 306 33 9 9 NMOS_VTL L=5e-08 W=9e-08 AD=9e-15 AS=9e-15 PD=3.8e-07 PS=3.8e-07 $X=45530 $Y=144130 $D=1
M219 9 34 307 9 NMOS_VTL L=5e-08 W=9e-08 AD=1.26e-14 AS=9e-15 PD=4.6e-07 PS=3.8e-07 $X=46190 $Y=134870 $D=1
M220 9 34 308 9 NMOS_VTL L=5e-08 W=9e-08 AD=1.26e-14 AS=9e-15 PD=4.6e-07 PS=3.8e-07 $X=46190 $Y=139500 $D=1
M221 9 34 309 9 NMOS_VTL L=5e-08 W=9e-08 AD=1.26e-14 AS=9e-15 PD=4.6e-07 PS=3.8e-07 $X=46190 $Y=144130 $D=1
M222 310 35 9 9 NMOS_VTL L=5e-08 W=9e-08 AD=9e-15 AS=1.26e-14 PD=3.8e-07 PS=4.6e-07 $X=46570 $Y=134870 $D=1
M223 311 35 9 9 NMOS_VTL L=5e-08 W=9e-08 AD=9e-15 AS=1.26e-14 PD=3.8e-07 PS=4.6e-07 $X=46570 $Y=139500 $D=1
M224 312 35 9 9 NMOS_VTL L=5e-08 W=9e-08 AD=9e-15 AS=1.26e-14 PD=3.8e-07 PS=4.6e-07 $X=46570 $Y=144130 $D=1
M225 313 34 223 9 NMOS_VTL L=5e-08 W=9e-08 AD=1.2375e-14 AS=1.2375e-14 PD=4.55e-07 PS=4.55e-07 $X=47305 $Y=134870 $D=1
M226 314 34 224 9 NMOS_VTL L=5e-08 W=9e-08 AD=1.2375e-14 AS=1.2375e-14 PD=4.55e-07 PS=4.55e-07 $X=47305 $Y=139500 $D=1
M227 315 34 225 9 NMOS_VTL L=5e-08 W=9e-08 AD=1.2375e-14 AS=1.2375e-14 PD=4.55e-07 PS=4.55e-07 $X=47305 $Y=144130 $D=1
M228 9 313 954 9 NMOS_VTL L=5e-08 W=9e-08 AD=1.26e-14 AS=9e-15 PD=4.6e-07 PS=3.8e-07 $X=48040 $Y=134870 $D=1
M229 9 314 955 9 NMOS_VTL L=5e-08 W=9e-08 AD=1.26e-14 AS=9e-15 PD=4.6e-07 PS=3.8e-07 $X=48040 $Y=139500 $D=1
M230 9 315 956 9 NMOS_VTL L=5e-08 W=9e-08 AD=1.26e-14 AS=9e-15 PD=4.6e-07 PS=3.8e-07 $X=48040 $Y=144130 $D=1
M231 316 954 9 9 NMOS_VTL L=5e-08 W=9e-08 AD=1.5525e-14 AS=1.26e-14 PD=5.25e-07 PS=4.6e-07 $X=48420 $Y=134870 $D=1
M232 317 955 9 9 NMOS_VTL L=5e-08 W=9e-08 AD=1.5525e-14 AS=1.26e-14 PD=5.25e-07 PS=4.6e-07 $X=48420 $Y=139500 $D=1
M233 318 956 9 9 NMOS_VTL L=5e-08 W=9e-08 AD=1.5525e-14 AS=1.26e-14 PD=5.25e-07 PS=4.6e-07 $X=48420 $Y=144130 $D=1
M234 313 307 316 9 NMOS_VTL L=5e-08 W=9e-08 AD=1.2375e-14 AS=1.5525e-14 PD=4.55e-07 PS=5.25e-07 $X=48865 $Y=134870 $D=1
M235 314 308 317 9 NMOS_VTL L=5e-08 W=9e-08 AD=1.2375e-14 AS=1.5525e-14 PD=4.55e-07 PS=5.25e-07 $X=48865 $Y=139500 $D=1
M236 315 309 318 9 NMOS_VTL L=5e-08 W=9e-08 AD=1.2375e-14 AS=1.5525e-14 PD=4.55e-07 PS=5.25e-07 $X=48865 $Y=144130 $D=1
M237 316 35 238 9 NMOS_VTL L=5e-08 W=9e-08 AD=1.89e-14 AS=1.2375e-14 PD=6e-07 PS=4.55e-07 $X=49675 $Y=134870 $D=1
M238 317 35 239 9 NMOS_VTL L=5e-08 W=9e-08 AD=1.89e-14 AS=1.2375e-14 PD=6e-07 PS=4.55e-07 $X=49675 $Y=139500 $D=1
M239 318 35 240 9 NMOS_VTL L=5e-08 W=9e-08 AD=1.89e-14 AS=1.2375e-14 PD=6e-07 PS=4.55e-07 $X=49675 $Y=144130 $D=1
M240 244 36 316 9 NMOS_VTL L=5e-08 W=9e-08 AD=1.2375e-14 AS=1.89e-14 PD=4.55e-07 PS=6e-07 $X=50195 $Y=134870 $D=1
M241 245 36 317 9 NMOS_VTL L=5e-08 W=9e-08 AD=1.2375e-14 AS=1.89e-14 PD=4.55e-07 PS=6e-07 $X=50195 $Y=139500 $D=1