* SPICE NETLIST
***************************************

.SUBCKT reg2w32 WE<31> RE1<31> D RE2<31> WE<30> RE1<30> RE2<30> WE<29> RE1<29> RE2<29> WE<28> RE1<28> RE2<28> WE<27> RE1<27> RE2<27> WE<26> RE1<26> RE2<26> WE<25>
+ RE1<25> RE2<25> WE<24> RE1<24> RE2<24> WE<23> RE1<23> RE2<23> WE<22> RE1<22> RE2<22> WE<21> RE1<21> RE2<21> WE<20> RE1<20> RE2<20> WE<19> RE1<19> RE2<19>
+ WE<18> RE1<18> RE2<18> WE<17> RE1<17> RE2<17> WE<16> RE1<16> RE2<16> WE<15> RE1<15> RE2<15> WE<14> RE1<14> RE2<14> WE<13> RE1<13> RE2<13> WE<12> RE1<12>
+ RE2<12> WE<11> RE1<11> RE2<11> WE<10> RE1<10> RE2<10> WE<9> RE1<9> RE2<9> WE<8> RE1<8> RE2<8> WE<7> RE1<7> RE2<7> WE<6> RE1<6> RE2<6> WE<5>
+ RE1<5> RE2<5> WE<4> RE1<4> RE2<4> WE<3> RE1<3> RE2<3> WE<2> RE1<2> RE2<2> WE<1> RE1<1> RE2<1> RE2<0> RE1<0> CLK Q1 Q1b Q2
+ vss! vdd! Q2b
** N=301 EP=103 IP=0 FDC=594
M0 vss! WE<31> 1 vss! NMOS_VTL L=5e-08 W=9e-08 AD=1.26e-14 AS=9e-15 PD=4.6e-07 PS=3.8e-07 $X=310 $Y=600 $D=1
M1 4 RE1<31> vss! vss! NMOS_VTL L=5e-08 W=9e-08 AD=9e-15 AS=1.26e-14 PD=3.8e-07 PS=4.6e-07 $X=690 $Y=600 $D=1
M2 6 WE<31> D vss! NMOS_VTL L=5e-08 W=9e-08 AD=1.2375e-14 AS=1.2375e-14 PD=4.55e-07 PS=4.55e-07 $X=1425 $Y=600 $D=1
M3 vss! 6 263 vss! NMOS_VTL L=5e-08 W=9e-08 AD=1.26e-14 AS=9e-15 PD=4.6e-07 PS=3.8e-07 $X=2160 $Y=600 $D=1
M4 7 263 vss! vss! NMOS_VTL L=5e-08 W=9e-08 AD=1.5525e-14 AS=1.26e-14 PD=5.25e-07 PS=4.6e-07 $X=2540 $Y=600 $D=1
M5 6 1 7 vss! NMOS_VTL L=5e-08 W=9e-08 AD=1.2375e-14 AS=1.5525e-14 PD=4.55e-07 PS=5.25e-07 $X=2985 $Y=600 $D=1
M6 7 RE1<31> 8 vss! NMOS_VTL L=5e-08 W=9e-08 AD=1.89e-14 AS=1.2375e-14 PD=6e-07 PS=4.55e-07 $X=3795 $Y=600 $D=1
M7 11 RE2<31> 7 vss! NMOS_VTL L=5e-08 W=9e-08 AD=1.2375e-14 AS=1.89e-14 PD=4.55e-07 PS=6e-07 $X=4315 $Y=600 $D=1
M8 10 RE2<31> vss! vss! NMOS_VTL L=5e-08 W=9e-08 AD=9e-15 AS=9e-15 PD=3.8e-07 PS=3.8e-07 $X=5050 $Y=600 $D=1
M9 vss! WE<30> 12 vss! NMOS_VTL L=5e-08 W=9e-08 AD=1.26e-14 AS=9e-15 PD=4.6e-07 PS=3.8e-07 $X=5710 $Y=600 $D=1
M10 15 RE1<30> vss! vss! NMOS_VTL L=5e-08 W=9e-08 AD=9e-15 AS=1.26e-14 PD=3.8e-07 PS=4.6e-07 $X=6090 $Y=600 $D=1
M11 16 WE<30> D vss! NMOS_VTL L=5e-08 W=9e-08 AD=1.2375e-14 AS=1.2375e-14 PD=4.55e-07 PS=4.55e-07 $X=6825 $Y=600 $D=1
M12 vss! 16 264 vss! NMOS_VTL L=5e-08 W=9e-08 AD=1.26e-14 AS=9e-15 PD=4.6e-07 PS=3.8e-07 $X=7560 $Y=600 $D=1
M13 17 264 vss! vss! NMOS_VTL L=5e-08 W=9e-08 AD=1.5525e-14 AS=1.26e-14 PD=5.25e-07 PS=4.6e-07 $X=7940 $Y=600 $D=1
M14 16 12 17 vss! NMOS_VTL L=5e-08 W=9e-08 AD=1.2375e-14 AS=1.5525e-14 PD=4.55e-07 PS=5.25e-07 $X=8385 $Y=600 $D=1
M15 17 RE1<30> 8 vss! NMOS_VTL L=5e-08 W=9e-08 AD=1.89e-14 AS=1.2375e-14 PD=6e-07 PS=4.55e-07 $X=9195 $Y=600 $D=1
M16 11 RE2<30> 17 vss! NMOS_VTL L=5e-08 W=9e-08 AD=1.2375e-14 AS=1.89e-14 PD=4.55e-07 PS=6e-07 $X=9715 $Y=600 $D=1
M17 19 RE2<30> vss! vss! NMOS_VTL L=5e-08 W=9e-08 AD=9e-15 AS=9e-15 PD=3.8e-07 PS=3.8e-07 $X=10450 $Y=600 $D=1
M18 vss! WE<29> 20 vss! NMOS_VTL L=5e-08 W=9e-08 AD=1.26e-14 AS=9e-15 PD=4.6e-07 PS=3.8e-07 $X=11110 $Y=600 $D=1
M19 23 RE1<29> vss! vss! NMOS_VTL L=5e-08 W=9e-08 AD=9e-15 AS=1.26e-14 PD=3.8e-07 PS=4.6e-07 $X=11490 $Y=600 $D=1
M20 24 WE<29> D vss! NMOS_VTL L=5e-08 W=9e-08 AD=1.2375e-14 AS=1.2375e-14 PD=4.55e-07 PS=4.55e-07 $X=12225 $Y=600 $D=1
M21 vss! 24 265 vss! NMOS_VTL L=5e-08 W=9e-08 AD=1.26e-14 AS=9e-15 PD=4.6e-07 PS=3.8e-07 $X=12960 $Y=600 $D=1
M22 25 265 vss! vss! NMOS_VTL L=5e-08 W=9e-08 AD=1.5525e-14 AS=1.26e-14 PD=5.25e-07 PS=4.6e-07 $X=13340 $Y=600 $D=1
M23 24 20 25 vss! NMOS_VTL L=5e-08 W=9e-08 AD=1.2375e-14 AS=1.5525e-14 PD=4.55e-07 PS=5.25e-07 $X=13785 $Y=600 $D=1
M24 25 RE1<29> 8 vss! NMOS_VTL L=5e-08 W=9e-08 AD=1.89e-14 AS=1.2375e-14 PD=6e-07 PS=4.55e-07 $X=14595 $Y=600 $D=1
M25 11 RE2<29> 25 vss! NMOS_VTL L=5e-08 W=9e-08 AD=1.2375e-14 AS=1.89e-14 PD=4.55e-07 PS=6e-07 $X=15115 $Y=600 $D=1
M26 27 RE2<29> vss! vss! NMOS_VTL L=5e-08 W=9e-08 AD=9e-15 AS=9e-15 PD=3.8e-07 PS=3.8e-07 $X=15850 $Y=600 $D=1
M27 vss! WE<28> 28 vss! NMOS_VTL L=5e-08 W=9e-08 AD=1.26e-14 AS=9e-15 PD=4.6e-07 PS=3.8e-07 $X=16510 $Y=600 $D=1
M28 31 RE1<28> vss! vss! NMOS_VTL L=5e-08 W=9e-08 AD=9e-15 AS=1.26e-14 PD=3.8e-07 PS=4.6e-07 $X=16890 $Y=600 $D=1
M29 32 WE<28> D vss! NMOS_VTL L=5e-08 W=9e-08 AD=1.2375e-14 AS=1.2375e-14 PD=4.55e-07 PS=4.55e-07 $X=17625 $Y=600 $D=1
M30 vss! 32 266 vss! NMOS_VTL L=5e-08 W=9e-08 AD=1.26e-14 AS=9e-15 PD=4.6e-07 PS=3.8e-07 $X=18360 $Y=600 $D=1
M31 33 266 vss! vss! NMOS_VTL L=5e-08 W=9e-08 AD=1.5525e-14 AS=1.26e-14 PD=5.25e-07 PS=4.6e-07 $X=18740 $Y=600 $D=1
M32 32 28 33 vss! NMOS_VTL L=5e-08 W=9e-08 AD=1.2375e-14 AS=1.5525e-14 PD=4.55e-07 PS=5.25e-07 $X=19185 $Y=600 $D=1
M33 33 RE1<28> 8 vss! NMOS_VTL L=5e-08 W=9e-08 AD=1.89e-14 AS=1.2375e-14 PD=6e-07 PS=4.55e-07 $X=19995 $Y=600 $D=1
M34 11 RE2<28> 33 vss! NMOS_VTL L=5e-08 W=9e-08 AD=1.2375e-14 AS=1.89e-14 PD=4.55e-07 PS=6e-07 $X=20515 $Y=600 $D=1
M35 35 RE2<28> vss! vss! NMOS_VTL L=5e-08 W=9e-08 AD=9e-15 AS=9e-15 PD=3.8e-07 PS=3.8e-07 $X=21250 $Y=600 $D=1
M36 vss! WE<27> 36 vss! NMOS_VTL L=5e-08 W=9e-08 AD=1.26e-14 AS=9e-15 PD=4.6e-07 PS=3.8e-07 $X=21910 $Y=600 $D=1
M37 39 RE1<27> vss! vss! NMOS_VTL L=5e-08 W=9e-08 AD=9e-15 AS=1.26e-14 PD=3.8e-07 PS=4.6e-07 $X=22290 $Y=600 $D=1
M38 40 WE<27> D vss! NMOS_VTL L=5e-08 W=9e-08 AD=1.2375e-14 AS=1.2375e-14 PD=4.55e-07 PS=4.55e-07 $X=23025 $Y=600 $D=1
M39 vss! 40 267 vss! NMOS_VTL L=5e-08 W=9e-08 AD=1.26e-14 AS=9e-15 PD=4.6e-07 PS=3.8e-07 $X=23760 $Y=600 $D=1
M40 41 267 vss! vss! NMOS_VTL L=5e-08 W=9e-08 AD=1.5525e-14 AS=1.26e-14 PD=5.25e-07 PS=4.6e-07 $X=24140 $Y=600 $D=1
M41 40 36 41 vss! NMOS_VTL L=5e-08 W=9e-08 AD=1.2375e-14 AS=1.5525e-14 PD=4.55e-07 PS=5.25e-07 $X=24585 $Y=600 $D=1
M42 41 RE1<27> 8 vss! NMOS_VTL L=5e-08 W=9e-08 AD=1.89e-14 AS=1.2375e-14 PD=6e-07 PS=4.55e-07 $X=25395 $Y=600 $D=1
M43 11 RE2<27> 41 vss! NMOS_VTL L=5e-08 W=9e-08 AD=1.2375e-14 AS=1.89e-14 PD=4.55e-07 PS=6e-07 $X=25915 $Y=600 $D=1
M44 43 RE2<27> vss! vss! NMOS_VTL L=5e-08 W=9e-08 AD=9e-15 AS=9e-15 PD=3.8e-07 PS=3.8e-07 $X=26650 $Y=600 $D=1
M45 vss! WE<26> 44 vss! NMOS_VTL L=5e-08 W=9e-08 AD=1.26e-14 AS=9e-15 PD=4.6e-07 PS=3.8e-07 $X=27310 $Y=600 $D=1
M46 47 RE1<26> vss! vss! NMOS_VTL L=5e-08 W=9e-08 AD=9e-15 AS=1.26e-14 PD=3.8e-07 PS=4.6e-07 $X=27690 $Y=600 $D=1
M47 48 WE<26> D vss! NMOS_VTL L=5e-08 W=9e-08 AD=1.2375e-14 AS=1.2375e-14 PD=4.55e-07 PS=4.55e-07 $X=28425 $Y=600 $D=1
M48 vss! 48 268 vss! NMOS_VTL L=5e-08 W=9e-08 AD=1.26e-14 AS=9e-15 PD=4.6e-07 PS=3.8e-07 $X=29160 $Y=600 $D=1
M49 49 268 vss! vss! NMOS_VTL L=5e-08 W=9e-08 AD=1.5525e-14 AS=1.26e-14 PD=5.25e-07 PS=4.6e-07 $X=29540 $Y=600 $D=1
M50 48 44 49 vss! NMOS_VTL L=5e-08 W=9e-08 AD=1.2375e-14 AS=1.5525e-14 PD=4.55e-07 PS=5.25e-07 $X=29985 $Y=600 $D=1
M51 49 RE1<26> 8 vss! NMOS_VTL L=5e-08 W=9e-08 AD=1.89e-14 AS=1.2375e-14 PD=6e-07 PS=4.55e-07 $X=30795 $Y=600 $D=1
M52 11 RE2<26> 49 vss! NMOS_VTL L=5e-08 W=9e-08 AD=1.2375e-14 AS=1.89e-14 PD=4.55e-07 PS=6e-07 $X=31315 $Y=600 $D=1
M53 51 RE2<26> vss! vss! NMOS_VTL L=5e-08 W=9e-08 AD=9e-15 AS=9e-15 PD=3.8e-07 PS=3.8e-07 $X=32050 $Y=600 $D=1
M54 vss! WE<25> 52 vss! NMOS_VTL L=5e-08 W=9e-08 AD=1.26e-14 AS=9e-15 PD=4.6e-07 PS=3.8e-07 $X=32710 $Y=600 $D=1
M55 55 RE1<25> vss! vss! NMOS_VTL L=5e-08 W=9e-08 AD=9e-15 AS=1.26e-14 PD=3.8e-07 PS=4.6e-07 $X=33090 $Y=600 $D=1
M56 56 WE<25> D vss! NMOS_VTL L=5e-08 W=9e-08 AD=1.2375e-14 AS=1.2375e-14 PD=4.55e-07 PS=4.55e-07 $X=33825 $Y=600 $D=1
M57 vss! 56 269 vss! NMOS_VTL L=5e-08 W=9e-08 AD=1.26e-14 AS=9e-15 PD=4.6e-07 PS=3.8e-07 $X=34560 $Y=600 $D=1
M58 57 269 vss! vss! NMOS_VTL L=5e-08 W=9e-08 AD=1.5525e-14 AS=1.26e-14 PD=5.25e-07 PS=4.6e-07 $X=34940 $Y=600 $D=1
M59 56 52 57 vss! NMOS_VTL L=5e-08 W=9e-08 AD=1.2375e-14 AS=1.5525e-14 PD=4.55e-07 PS=5.25e-07 $X=35385 $Y=600 $D=1
M60 57 RE1<25> 8 vss! NMOS_VTL L=5e-08 W=9e-08 AD=1.89e-14 AS=1.2375e-14 PD=6e-07 PS=4.55e-07 $X=36195 $Y=600 $D=1
M61 11 RE2<25> 57 vss! NMOS_VTL L=5e-08 W=9e-08 AD=1.2375e-14 AS=1.89e-14 PD=4.55e-07 PS=6e-07 $X=36715 $Y=600 $D=1
M62 59 RE2<25> vss! vss! NMOS_VTL L=5e-08 W=9e-08 AD=9e-15 AS=9e-15 PD=3.8e-07 PS=3.8e-07 $X=37450 $Y=600 $D=1
M63 vss! WE<24> 60 vss! NMOS_VTL L=5e-08 W=9e-08 AD=1.26e-14 AS=9e-15 PD=4.6e-07 PS=3.8e-07 $X=38110 $Y=600 $D=1
M64 63 RE1<24> vss! vss! NMOS_VTL L=5e-08 W=9e-08 AD=9e-15 AS=1.26e-14 PD=3.8e-07 PS=4.6e-07 $X=38490 $Y=600 $D=1
M65 64 WE<24> D vss! NMOS_VTL L=5e-08 W=9e-08 AD=1.2375e-14 AS=1.2375e-14 PD=4.55e-07 PS=4.55e-07 $X=39225 $Y=600 $D=1
M66 vss! 64 270 vss! NMOS_VTL L=5e-08 W=9e-08 AD=1.26e-14 AS=9e-15 PD=4.6e-07 PS=3.8e-07 $X=39960 $Y=600 $D=1
M67 65 270 vss! vss! NMOS_VTL L=5e-08 W=9e-08 AD=1.5525e-14 AS=1.26e-14 PD=5.25e-07 PS=4.6e-07 $X=40340 $Y=600 $D=1
M68 64 60 65 vss! NMOS_VTL L=5e-08 W=9e-08 AD=1.2375e-14 AS=1.5525e-14 PD=4.55e-07 PS=5.25e-07 $X=40785 $Y=600 $D=1
M69 65 RE1<24> 8 vss! NMOS_VTL L=5e-08 W=9e-08 AD=1.89e-14 AS=1.2375e-14 PD=6e-07 PS=4.55e-07 $X=41595 $Y=600 $D=1
M70 11 RE2<24> 65 vss! NMOS_VTL L=5e-08 W=9e-08 AD=1.2375e-14 AS=1.89e-14 PD=4.55e-07 PS=6e-07 $X=42115 $Y=600 $D=1
M71 67 RE2<24> vss! vss! NMOS_VTL L=5e-08 W=9e-08 AD=9e-15 AS=9e-15 PD=3.8e-07 PS=3.8e-07 $X=42850 $Y=600 $D=1
M72 vss! WE<23> 68 vss! NMOS_VTL L=5e-08 W=9e-08 AD=1.26e-14 AS=9e-15 PD=4.6e-07 PS=3.8e-07 $X=43510 $Y=600 $D=1
M73 71 RE1<23> vss! vss! NMOS_VTL L=5e-08 W=9e-08 AD=9e-15 AS=1.26e-14 PD=3.8e-07 PS=4.6e-07 $X=43890 $Y=600 $D=1
M74 72 WE<23> D vss! NMOS_VTL L=5e-08 W=9e-08 AD=1.2375e-14 AS=1.2375e-14 PD=4.55e-07 PS=4.55e-07 $X=44625 $Y=600 $D=1
M75 vss! 72 271 vss! NMOS_VTL L=5e-08 W=9e-08 AD=1.26e-14 AS=9e-15 PD=4.6e-07 PS=3.8e-07 $X=45360 $Y=600 $D=1
M76 73 271 vss! vss! NMOS_VTL L=5e-08 W=9e-08 AD=1.5525e-14 AS=1.26e-14 PD=5.25e-07 PS=4.6e-07 $X=45740 $Y=600 $D=1
M77 72 68 73 vss! NMOS_VTL L=5e-08 W=9e-08 AD=1.2375e-14 AS=1.5525e-14 PD=4.55e-07 PS=5.25e-07 $X=46185 $Y=600 $D=1
M78 73 RE1<23> 8 vss! NMOS_VTL L=5e-08 W=9e-08 AD=1.89e-14 AS=1.2375e-14 PD=6e-07 PS=4.55e-07 $X=46995 $Y=600 $D=1
M79 11 RE2<23> 73 vss! NMOS_VTL L=5e-08 W=9e-08 AD=1.2375e-14 AS=1.89e-14 PD=4.55e-07 PS=6e-07 $X=47515 $Y=600 $D=1
M80 75 RE2<23> vss! vss! NMOS_VTL L=5e-08 W=9e-08 AD=9e-15 AS=9e-15 PD=3.8e-07 PS=3.8e-07 $X=48250 $Y=600 $D=1
M81 vss! WE<22> 76 vss! NMOS_VTL L=5e-08 W=9e-08 AD=1.26e-14 AS=9e-15 PD=4.6e-07 PS=3.8e-07 $X=48910 $Y=600 $D=1
M82 79 RE1<22> vss! vss! NMOS_VTL L=5e-08 W=9e-08 AD=9e-15 AS=1.26e-14 PD=3.8e-07 PS=4.6e-07 $X=49290 $Y=600 $D=1
M83 80 WE<22> D vss! NMOS_VTL L=5e-08 W=9e-08 AD=1.2375e-14 AS=1.2375e-14 PD=4.55e-07 PS=4.55e-07 $X=50025 $Y=600 $D=1
M84 vss! 80 272 vss! NMOS_VTL L=5e-08 W=9e-08 AD=1.26e-14 AS=9e-15 PD=4.6e-07 PS=3.8e-07 $X=50760 $Y=600 $D=1
M85 81 272 vss! vss! NMOS_VTL L=5e-08 W=9e-08 AD=1.5525e-14 AS=1.26e-14 PD=5.25e-07 PS=4.6e-07 $X=51140 $Y=600 $D=1
M86 80 76 81 vss! NMOS_VTL L=5e-08 W=9e-08 AD=1.2375e-14 AS=1.5525e-14 PD=4.55e-07 PS=5.25e-07 $X=51585 $Y=600 $D=1
M87 81 RE1<22> 8 vss! NMOS_VTL L=5e-08 W=9e-08 AD=1.89e-14 AS=1.2375e-14 PD=6e-07 PS=4.55e-07 $X=52395 $Y=600 $D=1
M88 11 RE2<22> 81 vss! NMOS_VTL L=5e-08 W=9e-08 AD=1.2375e-14 AS=1.89e-14 PD=4.55e-07 PS=6e-07 $X=52915 $Y=600 $D=1
M89 83 RE2<22> vss! vss! NMOS_VTL L=5e-08 W=9e-08 AD=9e-15 AS=9e-15 PD=3.8e-07 PS=3.8e-07 $X=53650 $Y=600 $D=1
M90 vss! WE<21> 84 vss! NMOS_VTL L=5e-08 W=9e-08 AD=1.26e-14 AS=9e-15 PD=4.6e-07 PS=3.8e-07 $X=54310 $Y=600 $D=1
M91 87 RE1<21> vss! vss! NMOS_VTL L=5e-08 W=9e-08 AD=9e-15 AS=1.26e-14 PD=3.8e-07 PS=4.6e-07 $X=54690 $Y=600 $D=1
M92 88 WE<21> D vss! NMOS_VTL L=5e-08 W=9e-08 AD=1.2375e-14 AS=1.2375e-14 PD=4.55e-07 PS=4.55e-07 $X=55425 $Y=600 $D=1
M93 vss! 88 273 vss! NMOS_VTL L=5e-08 W=9e-08 AD=1.26e-14 AS=9e-15 PD=4.6e-07 PS=3.8e-07 $X=56160 $Y=600 $D=1
M94 89 273 vss! vss! NMOS_VTL L=5e-08 W=9e-08 AD=1.5525e-14 AS=1.26e-14 PD=5.25e-07 PS=4.6e-07 $X=56540 $Y=600 $D=1
M95 88 84 89 vss! NMOS_VTL L=5e-08 W=9e-08 AD=1.2375e-14 AS=1.5525e-14 PD=4.55e-07 PS=5.25e-07 $X=56985 $Y=600 $D=1
M96 89 RE1<21> 8 vss! NMOS_VTL L=5e-08 W=9e-08 AD=1.89e-14 AS=1.2375e-14 PD=6e-07 PS=4.55e-07 $X=57795 $Y=600 $D=1
M97 11 RE2<21> 89 vss! NMOS_VTL L=5e-08 W=9e-08 AD=1.2375e-14 AS=1.89e-14 PD=4.55e-07 PS=6e-07 $X=58315 $Y=600 $D=1
M98 91 RE2<21> vss! vss! NMOS_VTL L=5e-08 W=9e-08 AD=9e-15 AS=9e-15 PD=3.8e-07 PS=3.8e-07 $X=59050 $Y=600 $D=1
M99 vss! WE<20> 92 vss! NMOS_VTL L=5e-08 W=9e-08 AD=1.26e-14 AS=9e-15 PD=4.6e-07 PS=3.8e-07 $X=59710 $Y=600 $D=1
M100 95 RE1<20> vss! vss! NMOS_VTL L=5e-08 W=9e-08 AD=9e-15 AS=1.26e-14 PD=3.8e-07 PS=4.6e-07 $X=60090 $Y=600 $D=1
M101 96 WE<20> D vss! NMOS_VTL L=5e-08 W=9e-08 AD=1.2375e-14 AS=1.2375e-14 PD=4.55e-07 PS=4.55e-07 $X=60825 $Y=600 $D=1
M102 vss! 96 274 vss! NMOS_VTL L=5e-08 W=9e-08 AD=1.26e-14 AS=9e-15 PD=4.6e-07 PS=3.8e-07 $X=61560 $Y=600 $D=1
M103 97 274 vss! vss! NMOS_VTL L=5e-08 W=9e-08 AD=1.5525e-14 AS=1.26e-14 PD=5.25e-07 PS=4.6e-07 $X=61940 $Y=600 $D=1
M104 96 92 97 vss! NMOS_VTL L=5e-08 W=9e-08 AD=1.2375e-14 AS=1.5525e-14 PD=4.55e-07 PS=5.25e-07 $X=62385 $Y=600 $D=1
M105 97 RE1<20> 8 vss! NMOS_VTL L=5e-08 W=9e-08 AD=1.89e-14 AS=1.2375e-14 PD=6e-07 PS=4.55e-07 $X=63195 $Y=600 $D=1
M106 11 RE2<20> 97 vss! NMOS_VTL L=5e-08 W=9e-08 AD=1.2375e-14 AS=1.89e-14 PD=4.55e-07 PS=6e-07 $X=63715 $Y=600 $D=1
M107 99 RE2<20> vss! vss! NMOS_VTL L=5e-08 W=9e-08 AD=9e-15 AS=9e-15 PD=3.8e-07 PS=3.8e-07 $X=64450 $Y=600 $D=1
M108 vss! WE<19> 100 vss! NMOS_VTL L=5e-08 W=9e-08 AD=1.26e-14 AS=9e-15 PD=4.6e-07 PS=3.8e-07 $X=65110 $Y=600 $D=1
M109 103 RE1<19> vss! vss! NMOS_VTL L=5e-08 W=9e-08 AD=9e-15 AS=1.26e-14 PD=3.8e-07 PS=4.6e-07 $X=65490 $Y=600 $D=1
M110 104 WE<19> D vss! NMOS_VTL L=5e-08 W=9e-08 AD=1.2375e-14 AS=1.2375e-14 PD=4.55e-07 PS=4.55e-07 $X=66225 $Y=600 $D=1
M111 vss! 104 275 vss! NMOS_VTL L=5e-08 W=9e-08 AD=1.26e-14 AS=9e-15 PD=4.6e-07 PS=3.8e-07 $X=66960 $Y=600 $D=1
M112 105 275 vss! vss! NMOS_VTL L=5e-08 W=9e-08 AD=1.5525e-14 AS=1.26e-14 PD=5.25e-07 PS=4.6e-07 $X=67340 $Y=600 $D=1
M113 104 100 105 vss! NMOS_VTL L=5e-08 W=9e-08 AD=1.2375e-14 AS=1.5525e-14 PD=4.55e-07 PS=5.25e-07 $X=67785 $Y=600 $D=1
M114 105 RE1<19> 8 vss! NMOS_VTL L=5e-08 W=9e-08 AD=1.89e-14 AS=1.2375e-14 PD=6e-07 PS=4.55e-07 $X=68595 $Y=600 $D=1
M115 11 RE2<19> 105 vss! NMOS_VTL L=5e-08 W=9e-08 AD=1.2375e-14 AS=1.89e-14 PD=4.55e-07 PS=6e-07 $X=69115 $Y=600 $D=1
M116 107 RE2<19> vss! vss! NMOS_VTL L=5e-08 W=9e-08 AD=9e-15 AS=9e-15 PD=3.8e-07 PS=3.8e-07 $X=69850 $Y=600 $D=1
M117 vss! WE<18> 108 vss! NMOS_VTL L=5e-08 W=9e-08 AD=1.26e-14 AS=9e-15 PD=4.6e-07 PS=3.8e-07 $X=70510 $Y=600 $D=1
M118 111 RE1<18> vss! vss! NMOS_VTL L=5e-08 W=9e-08 AD=9e-15 AS=1.26e-14 PD=3.8e-07 PS=4.6e-07 $X=70890 $Y=600 $D=1
M119 112 WE<18> D vss! NMOS_VTL L=5e-08 W=9e-08 AD=1.2375e-14 AS=1.2375e-14 PD=4.55e-07 PS=4.55e-07 $X=71625 $Y=600 $D=1
M120 vss! 112 276 vss! NMOS_VTL L=5e-08 W=9e-08 AD=1.26e-14 AS=9e-15 PD=4.6e-07 PS=3.8e-07 $X=72360 $Y=600 $D=1
M121 113 276 vss! vss! NMOS_VTL L=5e-08 W=9e-08 AD=1.5525e-14 AS=1.26e-14 PD=5.25e-07 PS=4.6e-07 $X=72740 $Y=600 $D=1
M122 112 108 113 vss! NMOS_VTL L=5e-08 W=9e-08 AD=1.2375e-14 AS=1.5525e-14 PD=4.55e-07 PS=5.25e-07 $X=73185 $Y=600 $D=1
M123 113 RE1<18> 8 vss! NMOS_VTL L=5e-08 W=9e-08 AD=1.89e-14 AS=1.2375e-14 PD=6e-07 PS=4.55e-07 $X=73995 $Y=600 $D=1
M124 11 RE2<18> 113 vss! NMOS_VTL L=5e-08 W=9e-08 AD=1.2375e-14 AS=1.89e-14 PD=4.55e-07 PS=6e-07 $X=74515 $Y=600 $D=1
M125 115 RE2<18> vss! vss! NMOS_VTL L=5e-08 W=9e-08 AD=9e-15 AS=9e-15 PD=3.8e-07 PS=3.8e-07 $X=75250 $Y=600 $D=1
M126 vss! WE<17> 116 vss! NMOS_VTL L=5e-08 W=9e-08 AD=1.26e-14 AS=9e-15 PD=4.6e-07 PS=3.8e-07 $X=75910 $Y=600 $D=1
M127 119 RE1<17> vss! vss! NMOS_VTL L=5e-08 W=9e-08 AD=9e-15 AS=1.26e-14 PD=3.8e-07 PS=4.6e-07 $X=76290 $Y=600 $D=1
M128 120 WE<17> D vss! NMOS_VTL L=5e-08 W=9e-08 AD=1.2375e-14 AS=1.2375e-14 PD=4.55e-07 PS=4.55e-07 $X=77025 $Y=600 $D=1
M129 vss! 120 277 vss! NMOS_VTL L=5e-08 W=9e-08 AD=1.26e-14 AS=9e-15 PD=4.6e-07 PS=3.8e-07 $X=77760 $Y=600 $D=1
M130 121 277 vss! vss! NMOS_VTL L=5e-08 W=9e-08 AD=1.5525e-14 AS=1.26e-14 PD=5.25e-07 PS=4.6e-07 $X=78140 $Y=600 $D=1
M131 120 116 121 vss! NMOS_VTL L=5e-08 W=9e-08 AD=1.2375e-14 AS=1.5525e-14 PD=4.55e-07 PS=5.25e-07 $X=78585 $Y=600 $D=1
M132 121 RE1<17> 8 vss! NMOS_VTL L=5e-08 W=9e-08 AD=1.89e-14 AS=1.2375e-14 PD=6e-07 PS=4.55e-07 $X=79395 $Y=600 $D=1
M133 11 RE2<17> 121 vss! NMOS_VTL L=5e-08 W=9e-08 AD=1.2375e-14 AS=1.89e-14 PD=4.55e-07 PS=6e-07 $X=79915 $Y=600 $D=1
M134 123 RE2<17> vss! vss! NMOS_VTL L=5e-08 W=9e-08 AD=9e-15 AS=9e-15 PD=3.8e-07 PS=3.8e-07 $X=80650 $Y=600 $D=1
M135 vss! WE<16> 124 vss! NMOS_VTL L=5e-08 W=9e-08 AD=1.26e-14 AS=9e-15 PD=4.6e-07 PS=3.8e-07 $X=81310 $Y=600 $D=1
M136 127 RE1<16> vss! vss! NMOS_VTL L=5e-08 W=9e-08 AD=9e-15 AS=1.26e-14 PD=3.8e-07 PS=4.6e-07 $X=81690 $Y=600 $D=1
M137 128 WE<16> D vss! NMOS_VTL L=5e-08 W=9e-08 AD=1.2375e-14 AS=1.2375e-14 PD=4.55e-07 PS=4.55e-07 $X=82425 $Y=600 $D=1
M138 vss! 128 278 vss! NMOS_VTL L=5e-08 W=9e-08 AD=1.26e-14 AS=9e-15 PD=4.6e-07 PS=3.8e-07 $X=83160 $Y=600 $D=1
M139 129 278 vss! vss! NMOS_VTL L=5e-08 W=9e-08 AD=1.5525e-14 AS=1.26e-14 PD=5.25e-07 PS=4.6e-07 $X=83540 $Y=600 $D=1
M140 128 124 129 vss! NMOS_VTL L=5e-08 W=9e-08 AD=1.2375e-14 AS=1.5525e-14 PD=4.55e-07 PS=5.25e-07 $X=83985 $Y=600 $D=1
M141 129 RE1<16> 8 vss! NMOS_VTL L=5e-08 W=9e-08 AD=1.89e-14 AS=1.2375e-14 PD=6e-07 PS=4.55e-07 $X=84795 $Y=600 $D=1
M142 11 RE2<16> 129 vss! NMOS_VTL L=5e-08 W=9e-08 AD=1.2375e-14 AS=1.89e-14 PD=4.55e-07 PS=6e-07 $X=85315 $Y=600 $D=1
M143 131 RE2<16> vss! vss! NMOS_VTL L=5e-08 W=9e-08 AD=9e-15 AS=9e-15 PD=3.8e-07 PS=3.8e-07 $X=86050 $Y=600 $D=1
M144 vss! WE<15> 132 vss! NMOS_VTL L=5e-08 W=9e-08 AD=1.26e-14 AS=9e-15 PD=4.6e-07 PS=3.8e-07 $X=86710 $Y=600 $D=1
M145 135 RE1<15> vss! vss! NMOS_VTL L=5e-08 W=9e-08 AD=9e-15 AS=1.26e-14 PD=3.8e-07 PS=4.6e-07 $X=87090 $Y=600 $D=1
M146 136 WE<15> D vss! NMOS_VTL L=5e-08 W=9e-08 AD=1.2375e-14 AS=1.2375e-14 PD=4.55e-07 PS=4.55e-07 $X=87825 $Y=600 $D=1
M147 vss! 136 279 vss! NMOS_VTL L=5e-08 W=9e-08 AD=1.26e-14 AS=9e-15 PD=4.6e-07 PS=3.8e-07 $X=88560 $Y=600 $D=1
M148 137 279 vss! vss! NMOS_VTL L=5e-08 W=9e-08 AD=1.5525e-14 AS=1.26e-14 PD=5.25e-07 PS=4.6e-07 $X=88940 $Y=600 $D=1
M149 136 132 137 vss! NMOS_VTL L=5e-08 W=9e-08 AD=1.2375e-14 AS=1.5525e-14 PD=4.55e-07 PS=5.25e-07 $X=89385 $Y=600 $D=1
M150 137 RE1<15> 8 vss! NMOS_VTL L=5e-08 W=9e-08 AD=1.89e-14 AS=1.2375e-14 PD=6e-07 PS=4.55e-07 $X=90195 $Y=600 $D=1
M151 11 RE2<15> 137 vss! NMOS_VTL L=5e-08 W=9e-08 AD=1.2375e-14 AS=1.89e-14 PD=4.55e-07 PS=6e-07 $X=90715 $Y=600 $D=1
M152 139 RE2<15> vss! vss! NMOS_VTL L=5e-08 W=9e-08 AD=9e-15 AS=9e-15 PD=3.8e-07 PS=3.8e-07 $X=91450 $Y=600 $D=1
M153 vss! WE<14> 140 vss! NMOS_VTL L=5e-08 W=9e-08 AD=1.26e-14 AS=9e-15 PD=4.6e-07 PS=3.8e-07 $X=92110 $Y=600 $D=1
M154 143 RE1<14> vss! vss! NMOS_VTL L=5e-08 W=9e-08 AD=9e-15 AS=1.26e-14 PD=3.8e-07 PS=4.6e-07 $X=92490 $Y=600 $D=1
M155 144 WE<14> D vss! NMOS_VTL L=5e-08 W=9e-08 AD=1.2375e-14 AS=1.2375e-14 PD=4.55e-07 PS=4.55e-07 $X=93225 $Y=600 $D=1
M156 vss! 144 280 vss! NMOS_VTL L=5e-08 W=9e-08 AD=1.26e-14 AS=9e-15 PD=4.6e-07 PS=3.8e-07 $X=93960 $Y=600 $D=1
M157 145 280 vss! vss! NMOS_VTL L=5e-08 W=9e-08 AD=1.5525e-14 AS=1.26e-14 PD=5.25e-07 PS=4.6e-07 $X=94340 $Y=600 $D=1
M158 144 140 145 vss! NMOS_VTL L=5e-08 W=9e-08 AD=1.2375e-14 AS=1.5525e-14 PD=4.55e-07 PS=5.25e-07 $X=94785 $Y=600 $D=1
M159 145 RE1<14> 8 vss! NMOS_VTL L=5e-08 W=9e-08 AD=1.89e-14 AS=1.2375e-14 PD=6e-07 PS=4.55e-07 $X=95595 $Y=600 $D=1
M160 11 RE2<14> 145 vss! NMOS_VTL L=5e-08 W=9e-08 AD=1.2375e-14 AS=1.89e-14 PD=4.55e-07 PS=6e-07 $X=96115 $Y=600 $D=1
M161 147 RE2<14> vss! vss! NMOS_VTL L=5e-08 W=9e-08 AD=9e-15 AS=9e-15 PD=3.8e-07 PS=3.8e-07 $X=96850 $Y=600 $D=1
M162 vss! WE<13> 148 vss! NMOS_VTL L=5e-08 W=9e-08 AD=1.26e-14 AS=9e-15 PD=4.6e-07 PS=3.8e-07 $X=97510 $Y=600 $D=1
M163 151 RE1<13> vss! vss! NMOS_VTL L=5e-08 W=9e-08 AD=9e-15 AS=1.26e-14 PD=3.8e-07 PS=4.6e-07 $X=97890 $Y=600 $D=1
M164 152 WE<13> D vss! NMOS_VTL L=5e-08 W=9e-08 AD=1.2375e-14 AS=1.2375e-14 PD=4.55e-07 PS=4.55e-07 $X=98625 $Y=600 $D=1
M165 vss! 152 281 vss! NMOS_VTL L=5e-08 W=9e-08 AD=1.26e-14 AS=9e-15 PD=4.6e-07 PS=3.8e-07 $X=99360 $Y=600 $D=1
M166 153 281 vss! vss! NMOS_VTL L=5e-08 W=9e-08 AD=1.5525e-14 AS=1.26e-14 PD=5.25e-07 PS=4.6e-07 $X=99740 $Y=600 $D=1
M167 152 148 153 vss! NMOS_VTL L=5e-08 W=9e-08 AD=1.2375e-14 AS=1.5525e-14 PD=4.55e-07 PS=5.25e-07 $X=100185 $Y=600 $D=1
M168 153 RE1<13> 8 vss! NMOS_VTL L=5e-08 W=9e-08 AD=1.89e-14 AS=1.2375e-14 PD=6e-07 PS=4.55e-07 $X=100995 $Y=600 $D=1
M169 11 RE2<13> 153 vss! NMOS_VTL L=5e-08 W=9e-08 AD=1.2375e-14 AS=1.89e-14 PD=4.55e-07 PS=6e-07 $X=101515 $Y=600 $D=1
M170 155 RE2<13> vss! vss! NMOS_VTL L=5e-08 W=9e-08 AD=9e-15 AS=9e-15 PD=3.8e-07 PS=3.8e-07 $X=102250 $Y=600 $D=1
M171 vss! WE<12> 156 vss! NMOS_VTL L=5e-08 W=9e-08 AD=1.26e-14 AS=9e-15 PD=4.6e-07 PS=3.8e-07 $X=102910 $Y=600 $D=1
M172 159 RE1<12> vss! vss! NMOS_VTL L=5e-08 W=9e-08 AD=9e-15 AS=1.26e-14 PD=3.8e-07 PS=4.6e-07 $X=103290 $Y=600 $D=1
M173 160 WE<12> D vss! NMOS_VTL L=5e-08 W=9e-08 AD=1.2375e-14 AS=1.2375e-14 PD=4.55e-07 PS=4.55e-07 $X=104025 $Y=600 $D=1
M174 vss! 160 282 vss! NMOS_VTL L=5e-08 W=9e-08 AD=1.26e-14 AS=9e-15 PD=4.6e-07 PS=3.8e-07 $X=104760 $Y=600 $D=1
M175 161 282 vss! vss! NMOS_VTL L=5e-08 W=9e-08 AD=1.5525e-14 AS=1.26e-14 PD=5.25e-07 PS=4.6e-07 $X=105140 $Y=600 $D=1
M176 160 156 161 vss! NMOS_VTL L=5e-08 W=9e-08 AD=1.2375e-14 AS=1.5525e-14 PD=4.55e-07 PS=5.25e-07 $X=105585 $Y=600 $D=1
M177 161 RE1<12> 8 vss! NMOS_VTL L=5e-08 W=9e-08 AD=1.89e-14 AS=1.2375e-14 PD=6e-07 PS=4.55e-07 $X=106395 $Y=600 $D=1
M178 11 RE2<12> 161 vss! NMOS_VTL L=5e-08 W=9e-08 AD=1.2375e-14 AS=1.89e-14 PD=4.55e-07 PS=6e-07 $X=106915 $Y=600 $D=1
M179 163 RE2<12> vss! vss! NMOS_VTL L=5e-08 W=9e-08 AD=9e-15 AS=9e-15 PD=3.8e-07 PS=3.8e-07 $X=107650 $Y=600 $D=1
M180 vss! WE<11> 164 vss! NMOS_VTL L=5e-08 W=9e-08 AD=1.26e-14 AS=9e-15 PD=4.6e-07 PS=3.8e-07 $X=108310 $Y=600 $D=1
M181 167 RE1<11> vss! vss! NMOS_VTL L=5e-08 W=9e-08 AD=9e-15 AS=1.26e-14 PD=3.8e-07 PS=4.6e-07 $X=108690 $Y=600 $D=1
M182 168 WE<11> D vss! NMOS_VTL L=5e-08 W=9e-08 AD=1.2375e-14 AS=1.2375e-14 PD=4.55e-07 PS=4.55e-07 $X=109425 $Y=600 $D=1
M183 vss! 168 283 vss! NMOS_VTL L=5e-08 W=9e-08 AD=1.26e-14 AS=9e-15 PD=4.6e-07 PS=3.8e-07 $X=110160 $Y=600 $D=1
M184 169 283 vss! vss! NMOS_VTL L=5e-08 W=9e-08 AD=1.5525e-14 AS=1.26e-14 PD=5.25e-07 PS=4.6e-07 $X=110540 $Y=600 $D=1
M185 168 164 169 vss! NMOS_VTL L=5e-08 W=9e-08 AD=1.2375e-14 AS=1.5525e-14 PD=4.55e-07 PS=5.25e-07 $X=110985 $Y=600 $D=1
M186 169 RE1<11> 8 vss! NMOS_VTL L=5e-08 W=9e-08 AD=1.89e-14 AS=1.2375e-14 PD=6e-07 PS=4.55e-07 $X=111795 $Y=600 $D=1
M187 11 RE2<11> 169 vss! NMOS_VTL L=5e-08 W=9e-08 AD=1.2375e-14 AS=1.89e-14 PD=4.55e-07 PS=6e-07 $X=112315 $Y=600 $D=1
M188 171 RE2<11> vss! vss! NMOS_VTL L=5e-08 W=9e-08 AD=9e-15 AS=9e-15 PD=3.8e-07 PS=3.8e-07 $X=113050 $Y=600 $D=1
M189 vss! WE<10> 172 vss! NMOS_VTL L=5e-08 W=9e-08 AD=1.26e-14 AS=9e-15 PD=4.6e-07 PS=3.8e-07 $X=113710 $Y=600 $D=1
M190 175 RE1<10> vss! vss! NMOS_VTL L=5e-08 W=9e-08 AD=9e-15 AS=1.26e-14 PD=3.8e-07 PS=4.6e-07 $X=114090 $Y=600 $D=1
M191 176 WE<10> D vss! NMOS_VTL L=5e-08 W=9e-08 AD=1.2375e-14 AS=1.2375e-14 PD=4.55e-07 PS=4.55e-07 $X=114825 $Y=600 $D=1
M192 vss! 176 284 vss! NMOS_VTL L=5e-08 W=9e-08 AD=1.26e-14 AS=9e-15 PD=4.6e-07 PS=3.8e-07 $X=115560 $Y=600 $D=1
M193 177 284 vss! vss! NMOS_VTL L=5e-08 W=9e-08 AD=1.5525e-14 AS=1.26e-14 PD=5.25e-07 PS=4.6e-07 $X=115940 $Y=600 $D=1
M194 176 172 177 vss! NMOS_VTL L=5e-08 W=9e-08 AD=1.2375e-14 AS=1.5525e-14 PD=4.55e-07 PS=5.25e-07 $X=116385 $Y=600 $D=1
M195 177 RE1<10> 8 vss! NMOS_VTL L=5e-08 W=9e-08 AD=1.89e-14 AS=1.2375e-14 PD=6e-07 PS=4.55e-07 $X=117195 $Y=600 $D=1
M196 11 RE2<10> 177 vss! NMOS_VTL L=5e-08 W=9e-08 AD=1.2375e-14 AS=1.89e-14 PD=4.55e-07 PS=6e-07 $X=117715 $Y=600 $D=1
M197 179 RE2<10> vss! vss! NMOS_VTL L=5e-08 W=9e-08 AD=9e-15 AS=9e-15 PD=3.8e-07 PS=3.8e-07 $X=118450 $Y=600 $D=1
M198 vss! WE<9> 180 vss! NMOS_VTL L=5e-08 W=9e-08 AD=1.26e-14 AS=9e-15 PD=4.6e-07 PS=3.8e-07 $X=119110 $Y=600 $D=1
M199 183 RE1<9> vss! vss! NMOS_VTL L=5e-08 W=9e-08 AD=9e-15 AS=1.26e-14 PD=3.8e-07 PS=4.6e-07 $X=119490 $Y=600 $D=1
M200 184 WE<9> D vss! NMOS_VTL L=5e-08 W=9e-08 AD=1.2375e-14 AS=1.2375e-14 PD=4.55e-07 PS=4.55e-07 $X=120225 $Y=600 $D=1
M201 vss! 184 285 vss! NMOS_VTL L=5e-08 W=9e-08 AD=1.26e-14 AS=9e-15 PD=4.6e-07 PS=3.8e-07 $X=120960 $Y=600 $D=1
M202 185 285 vss! vss! NMOS_VTL L=5e-08 W=9e-08 AD=1.5525e-14 AS=1.26e-14 PD=5.25e-07 PS=4.6e-07 $X=121340 $Y=600 $D=1
M203 184 180 185 vss! NMOS_VTL L=5e-08 W=9e-08 AD=1.2375e-14 AS=1.5525e-14 PD=4.55e-07 PS=5.25e-07 $X=121785 $Y=600 $D=1
M204 185 RE1<9> 8 vss! NMOS_VTL L=5e-08 W=9e-08 AD=1.89e-14 AS=1.2375e-14 PD=6e-07 PS=4.55e-07 $X=122595 $Y=600 $D=1
M205 11 RE2<9> 185 vss! NMOS_VTL L=5e-08 W=9e-08 AD=1.2375e-14 AS=1.89e-14 PD=4.55e-07 PS=6e-07 $X=123115 $Y=600 $D=1
M206 187 RE2<9> vss! vss! NMOS_VTL L=5e-08 W=9e-08 AD=9e-15 AS=9e-15 PD=3.8e-07 PS=3.8e-07 $X=123850 $Y=600 $D=1
M207 vss! WE<8> 188 vss! NMOS_VTL L=5e-08 W=9e-08 AD=1.26e-14 AS=9e-15 PD=4.6e-07 PS=3.8e-07 $X=124510 $Y=600 $D=1
M208 191 RE1<8> vss! vss! NMOS_VTL L=5e-08 W=9e-08 AD=9e-15 AS=1.26e-14 PD=3.8e-07 PS=4.6e-07 $X=124890 $Y=600 $D=1
M209 192 WE<8> D vss! NMOS_VTL L=5e-08 W=9e-08 AD=1.2375e-14 AS=1.2375e-14 PD=4.55e-07 PS=4.55e-07 $X=125625 $Y=600 $D=1
M210 vss! 192 286 vss! NMOS_VTL L=5e-08 W=9e-08 AD=1.26e-14 AS=9e-15 PD=4.6e-07 PS=3.8e-07 $X=126360 $Y=600 $D=1
M211 193 286 vss! vss! NMOS_VTL L=5e-08 W=9e-08 AD=1.5525e-14 AS=1.26e-14 PD=5.25e-07 PS=4.6e-07 $X=126740 $Y=600 $D=1
M212 192 188 193 vss! NMOS_VTL L=5e-08 W=9e-08 AD=1.2375e-14 AS=1.5525e-14 PD=4.55e-07 PS=5.25e-07 $X=127185 $Y=600 $D=1
M213 193 RE1<8> 8 vss! NMOS_VTL L=5e-08 W=9e-08 AD=1.89e-14 AS=1.2375e-14 PD=6e-07 PS=4.55e-07 $X=127995 $Y=600 $D=1
M214 11 RE2<8> 193 vss! NMOS_VTL L=5e-08 W=9e-08 AD=1.2375e-14 AS=1.89e-14 PD=4.55e-07 PS=6e-07 $X=128515 $Y=600 $D=1
M215 195 RE2<8> vss! vss! NMOS_VTL L=5e-08 W=9e-08 AD=9e-15 AS=9e-15 PD=3.8e-07 PS=3.8e-07 $X=129250 $Y=600 $D=1
M216 vss! WE<7> 196 vss! NMOS_VTL L=5e-08 W=9e-08 AD=1.26e-14 AS=9e-15 PD=4.6e-07 PS=3.8e-07 $X=129910 $Y=600 $D=1
M217 199 RE1<7> vss! vss! NMOS_VTL L=5e-08 W=9e-08 AD=9e-15 AS=1.26e-14 PD=3.8e-07 PS=4.6e-07 $X=130290 $Y=600 $D=1
M218 200 WE<7> D vss! NMOS_VTL L=5e-08 W=9e-08 AD=1.2375e-14 AS=1.2375e-14 PD=4.55e-07 PS=4.55e-07 $X=131025 $Y=600 $D=1
M219 vss! 200 287 vss! NMOS_VTL L=5e-08 W=9e-08 AD=1.26e-14 AS=9e-15 PD=4.6e-07 PS=3.8e-07 $X=131760 $Y=600 $D=1
M220 201 287 vss! vss! NMOS_VTL L=5e-08 W=9e-08 AD=1.5525e-14 AS=1.26e-14 PD=5.25e-07 PS=4.6e-07 $X=132140 $Y=600 $D=1
M221 200 196 201 vss! NMOS_VTL L=5e-08 W=9e-08 AD=1.2375e-14 AS=1.5525e-14 PD=4.55e-07 PS=5.25e-07 $X=132585 $Y=600 $D=1
M222 201 RE1<7> 8 vss! NMOS_VTL L=5e-08 W=9e-08 AD=1.89e-14 AS=1.2375e-14 PD=6e-07 PS=4.55e-07 $X=133395 $Y=600 $D=1
M223 11 RE2<7> 201 vss! NMOS_VTL L=5e-08 W=9e-08 AD=1.2375e-14 AS=1.89e-14 PD=4.55e-07 PS=6e-07 $X=133915 $Y=600 $D=1
M224 203 RE2<7> vss! vss! NMOS_VTL L=5e-08 W=9e-08 AD=9e-15 AS=9e-15 PD=3.8e-07 PS=3.8e-07 $X=134650 $Y=600 $D=1
M225 vss! WE<6> 204 vss! NMOS_VTL L=5e-08 W=9e-08 AD=1.26e-14 AS=9e-15 PD=4.6e-07 PS=3.8e-07 $X=135310 $Y=600 $D=1
M226 207 RE1<6> vss! vss! NMOS_VTL L=5e-08 W=9e-08 AD=9e-15 AS=1.26e-14 PD=3.8e-07 PS=4.6e-07 $X=135690 $Y=600 $D=1
M227 208 WE<6> D vss! NMOS_VTL L=5e-08 W=9e-08 AD=1.2375e-14 AS=1.2375e-14 PD=4.55e-07 PS=4.55e-07 $X=136425 $Y=600 $D=1
M228 vss! 208 288 vss! NMOS_VTL L=5e-08 W=9e-08 AD=1.26e-14 AS=9e-15 PD=4.6e-07 PS=3.8e-07 $X=137160 $Y=600 $D=1
M229 209 288 vss! vss! NMOS_VTL L=5e-08 W=9e-08 AD=1.5525e-14 AS=1.26e-14 PD=5.25e-07 PS=4.6e-07 $X=137540 $Y=600 $D=1
M230 208 204 209 vss! NMOS_VTL L=5e-08 W=9e-08 AD=1.2375e-14 AS=1.5525e-14 PD=4.55e-07 PS=5.25e-07 $X=137985 $Y=600 $D=1
M231 209 RE1<6> 8 vss! NMOS_VTL L=5e-08 W=9e-08 AD=1.89e-14 AS=1.2375e-14 PD=6e-07 PS=4.55e-07 $X=138795 $Y=600 $D=1
M232 11 RE2<6> 209 vss! NMOS_VTL L=5e-08 W=9e-08 AD=1.2375e-14 AS=1.89e-14 PD=4.55e-07 PS=6e-07 $X=139315 $Y=600 $D=1
M233 211 RE2<6> vss! vss! NMOS_VTL L=5e-08 W=9e-08 AD=9e-15 AS=9e-15 PD=3.8e-07 PS=3.8e-07 $X=140050 $Y=600 $D=1
M234 vss! WE<5> 212 vss! NMOS_VTL L=5e-08 W=9e-08 AD=1.26e-14 AS=9e-15 PD=4.6e-07 PS=3.8e-07 $X=140710 $Y=600 $D=1
M235 215 RE1<5> vss! vss! NMOS_VTL L=5e-08 W=9e-08 AD=9e-15 AS=1.26e-14 PD=3.8e-07 PS=4.6e-07 $X=141090 $Y=600 $D=1
M236 216 WE<5> D vss! NMOS_VTL L=5e-08 W=9e-08 AD=1.2375e-14 AS=1.2375e-14 PD=4.55e-07 PS=4.55e-07 $X=141825 $Y=600 $D=1
M237 vss! 216 289 vss! NMOS_VTL L=5e-08 W=9e-08 AD=1.26e-14 AS=9e-15 PD=4.6e-07 PS=3.8e-07 $X=142560 $Y=600 $D=1
M238 217 289 vss! vss! NMOS_VTL L=5e-08 W=9e-08 AD=1.5525e-14 AS=1.26e-14 PD=5.25e-07 PS=4.6e-07 $X=142940 $Y=600 $D=1
M239 216 212 217 vss! NMOS_VTL L=5e-08 W=9e-08 AD=1.2375e-14 AS=1.5525e-14 PD=4.55e-07 PS=5.25e-07 $X=143385 $Y=600 $D=1
M240 217 RE1<5> 8 vss! NMOS_VTL L=5e-08 W=9e-08 AD=1.89e-14 AS=1.2375e-14 PD=6e-07 PS=4.55e-07 $X=144195 $Y=600 $D=1
M241 11 RE2<5> 217 vss! NMOS_VTL L=5e-08 W=9e-08 AD=1.2375e-14 AS=1.89e-14 PD=4.55e-07 PS=6e-07 $X=144715 $Y=600 $D=1
M242 219 RE2<5> vss! vss! NMOS_VTL L=5e-08 W=9e-08 AD=9e-15 AS=9e-15 PD=3.8e-07 PS=3.8e-07 $X=145450 $Y=600 $D=1
M243 vss! WE<4> 220 vss! NMOS_VTL L=5e-08 W=9e-08 AD=1.26e-14 AS=9e-15 PD=4.6e-07 PS=3.8e-07 $X=146110 $Y=600 $D=1
M244 223 RE1<4> vss! vss! NMOS_VTL L=5e-08 W=9e-08 AD=9e-15 AS=1.26e-14 PD=3.8e-07 PS=4.6e-07 $X=146490 $Y=600 $D=1
M245 224 WE<4> D vss! NMOS_VTL L=5e-08 W=9e-08 AD=1.2375e-14 AS=1.2375e-14 PD=4.55e-07 PS=4.55e-07 $X=147225 $Y=600 $D=1
M246 vss! 224 290 vss! NMOS_VTL L=5e-08 W=9e-08 AD=1.26e-14 AS=9e-15 PD=4.6e-07 PS=3.8e-07 $X=147960 $Y=600 $D=1
M247 225 290 vss! vss! NMOS_VTL L=5e-08 W=9e-08 AD=1.5525e-14 AS=1.26e-14 PD=5.25e-07 PS=4.6e-07 $X=148340 $Y=600 $D=1
M248 224 220 225 vss! NMOS_VTL L=5e-08 W=9e-08 AD=1.2375e-14 AS=1.5525e-14 PD=4.55e-07 PS=5.25e-07 $X=148785 $Y=600 $D=1
M249 225 RE1<4> 8 vss! NMOS_VTL L=5e-08 W=9e-08 AD=1.89e-14 AS=1.2375e-14 PD=6e-07 PS=4.55e-07 $X=149595 $Y=600 $D=1
M250 11 RE2<4> 225 vss! NMOS_VTL L=5e-08 W=9e-08 AD=1.2375e-14 AS=1.89e-14 PD=4.55e-07 PS=6e-07 $X=150115 $Y=600 $D=1